LAMMPS (7 Aug 2019)

# ----------------- Init Section -----------------

include "system.in.init"
        units lj
        atom_style angle
        pair_style hybrid lj/expand/twopiece 2.5 soft/shift 0.3 zero 1 morse 2.5
        bond_style hybrid harmonic
        angle_style hybrid harmonic
        special_bonds lj 0.0 0.0 0.0

# ----------------- Atom Definition Section -----------------

read_data "system.data"
  orthogonal box = (-20 -20 -20) to (20 20 20)
  reading atoms ...
  2 atoms

# ----------------- Settings Section -----------------

include "system.in.settings"
       pair_coeff 2 2 lj/expand/twopiece 0.5 1 0.5 0.
        pair_coeff 3 3 lj/expand/twopiece 1.0 1 0.5 0.
        pair_coeff 4 4 lj/expand/twopiece 1.0 1 0.5 0.
        pair_coeff 3 4 lj/expand/twopiece 1.0 1 0.5 0.
        pair_coeff 2 3 lj/expand/twopiece 0.5 1 0.5 0.
        pair_coeff 2 4 lj/expand/twopiece 0.5 1 0.5 0.

        pair_coeff 5 5 soft/shift 1.5 0.2
pair_coeff 2 5 zero
pair_coeff 1 5 zero
pair_coeff 3 5 zero
pair_coeff 4 5 zero

        pair_coeff 8 8 lj/expand/twopiece 0.5 1 0.5 0.
pair_coeff 5 8 lj/expand/twopiece 0.5 1 0.5 0.
pair_coeff 2 8 zero
pair_coeff 1 8 morse 100 4 0.5
pair_coeff 3 8 zero
pair_coeff 4 8 zero
pair_coeff 6 8 zero
pair_coeff 7 8 zero

        pair_coeff 6 6 soft/shift 1.5 0.2
pair_coeff 2 6 zero
pair_coeff 1 6 zero
pair_coeff 3 6 zero
pair_coeff 4 6 zero
        pair_coeff 6 7 soft/shift 1.5 0.2

        pair_coeff 7 7 soft/shift 1.5 0.2
pair_coeff 2 7 zero
pair_coeff 1 7 zero
pair_coeff 3 7 zero
pair_coeff 4 7 zero

        pair_coeff 1 1 lj/expand/twopiece 0.5 1 0.8 0.
        pair_coeff 1 2 lj/expand/twopiece 0.5 1 0.8 0.
        pair_coeff 1 3 lj/expand/twopiece 0.5 1 0.8 0.
        pair_coeff 1 4 lj/expand/twopiece 0.5 1 0.8 0.

        bond_coeff 1 harmonic 1000 0.4
        bond_coeff 2 harmonic 1000 0.4
        bond_coeff 3 harmonic 1000 0.15

        angle_coeff 1 harmonic 20 180
        angle_coeff 2 harmonic 20 180
        angle_coeff 3 harmonic 20 180
        angle_coeff 4 harmonic 20 180

# ----------------- Run Section -----------------

include "system.in.run"
  dump dxyz all atom 1000 poly.lammpstrj
  group atom1 id 1
1 atoms in group atom1
  group atom2 id 2
1 atoms in group atom2
  compute pair_data all pair/local dist eng

  fix ffreeze all setforce 0 0 0
  dump 1 all local 10 pair_energy.data index c_pair_data[1] c_pair_data[2]

  thermo 200
  timestep 0.001
  run   1000
  update every 1 steps, delay 10 steps, check yes
Step Temp E_pair E_mol TotEng Press
0            0 -0.00016351103            0 -0.00016351103 -1.0218604e-08
Loop time of 0.023421 on 1 procs for 1000 steps with 2 atoms

  variable a loop 240
  label loop
  displace_atoms atom2 move 0 -0.02 0
  run   1000
  update every 1 steps, delay 10 steps, check yes
Step Temp E_pair E_mol TotEng Press
1000            0 -0.00017192971            0 -0.00017192971 -1.0744683e-08
Loop time of 0.017518 on 1 procs for 1000 steps with 2 atoms

  next a
  jump SELF loop
  displace_atoms atom2 move 0 -0.02 0
  run   1000
  update every 1 steps, delay 10 steps, check yes
Step Temp E_pair E_mol TotEng Press
2000            0 -0.00018085842            0 -0.00018085842 -1.1302629e-08
Loop time of 0.022393 on 1 procs for 1000 steps with 2 atoms

  next a
  jump SELF loop
  displace_atoms atom2 move 0 -0.02 0
  run   1000
  update every 1 steps, delay 10 steps, check yes
Step Temp E_pair E_mol TotEng Press
3000            0 -0.00019033276            0 -0.00019033276 -1.1894665e-08
Loop time of 0.662027 on 1 procs for 1000 steps with 2 atoms

  next a
  jump SELF loop
  displace_atoms atom2 move 0 -0.02 0
  run   1000
  update every 1 steps, delay 10 steps, check yes
Step Temp E_pair E_mol TotEng Press
4000            0 -0.00020039117            0 -0.00020039117 -1.2523193e-08
Loop time of 0.070578 on 1 procs for 1000 steps with 2 atoms

  next a
  jump SELF loop
  displace_atoms atom2 move 0 -0.02 0
  run   1000
  update every 1 steps, delay 10 steps, check yes
Step Temp E_pair E_mol TotEng Press
5000            0 -0.00021107518            0 -0.00021107518 -1.3190806e-08
Loop time of 0.054123 on 1 procs for 1000 steps with 2 atoms

  next a
  jump SELF loop
  displace_atoms atom2 move 0 -0.02 0
  run   1000
  update every 1 steps, delay 10 steps, check yes
Step Temp E_pair E_mol TotEng Press
6000            0 -0.00022242963            0 -0.00022242963 -1.3900305e-08
Loop time of 0.164082 on 1 procs for 1000 steps with 2 atoms

  next a
  jump SELF loop
  displace_atoms atom2 move 0 -0.02 0
  run   1000
  update every 1 steps, delay 10 steps, check yes
Step Temp E_pair E_mol TotEng Press
7000            0 -0.00023450303            0 -0.00023450303 -1.465472e-08
Loop time of 0.036165 on 1 procs for 1000 steps with 2 atoms

  next a
  jump SELF loop
  displace_atoms atom2 move 0 -0.02 0
  run   1000
  update every 1 steps, delay 10 steps, check yes
Step Temp E_pair E_mol TotEng Press
8000            0 -0.00024734788            0 -0.00024734788 -1.545733e-08
Loop time of 0.028837 on 1 procs for 1000 steps with 2 atoms

  next a
  jump SELF loop
  displace_atoms atom2 move 0 -0.02 0
  run   1000
  update every 1 steps, delay 10 steps, check yes
Step Temp E_pair E_mol TotEng Press
9000            0 -0.00026102102            0 -0.00026102102 -1.6311684e-08
Loop time of 0.024029 on 1 procs for 1000 steps with 2 atoms

  next a
  jump SELF loop
  displace_atoms atom2 move 0 -0.02 0
  run   1000
  update every 1 steps, delay 10 steps, check yes
Step Temp E_pair E_mol TotEng Press
10000            0 -0.00027558405            0 -0.00027558405 -1.7221629e-08
Loop time of 0.026379 on 1 procs for 1000 steps with 2 atoms

  next a
  jump SELF loop
  displace_atoms atom2 move 0 -0.02 0
  run   1000
  update every 1 steps, delay 10 steps, check yes
Step Temp E_pair E_mol TotEng Press
11000            0 -0.00029110377            0 -0.00029110377 -1.8191337e-08
Loop time of 0.025918 on 1 procs for 1000 steps with 2 atoms

  next a
  jump SELF loop
  displace_atoms atom2 move 0 -0.02 0
  run   1000
  update every 1 steps, delay 10 steps, check yes
Step Temp E_pair E_mol TotEng Press
12000            0 -0.00030765267            0 -0.00030765267 -1.9225333e-08
Loop time of 0.022516 on 1 procs for 1000 steps with 2 atoms

  next a
  jump SELF loop
  displace_atoms atom2 move 0 -0.02 0
  run   1000
  update every 1 steps, delay 10 steps, check yes
Step Temp E_pair E_mol TotEng Press
13000            0 -0.00032530948            0 -0.00032530948 -2.0328535e-08
Loop time of 0.031244 on 1 procs for 1000 steps with 2 atoms

  next a
  jump SELF loop
  displace_atoms atom2 move 0 -0.02 0
  run   1000
  update every 1 steps, delay 10 steps, check yes
Step Temp E_pair E_mol TotEng Press
14000            0 -0.00034415977            0 -0.00034415977 -2.1506283e-08
Loop time of 0.027568 on 1 procs for 1000 steps with 2 atoms

  next a
  jump SELF loop
  displace_atoms atom2 move 0 -0.02 0
  run   1000
  update every 1 steps, delay 10 steps, check yes
Step Temp E_pair E_mol TotEng Press
15000            0 -0.00036429661            0 -0.00036429661 -2.2764389e-08
Loop time of 0.023152 on 1 procs for 1000 steps with 2 atoms

  next a
  jump SELF loop
  displace_atoms atom2 move 0 -0.02 0
  run   1000
  update every 1 steps, delay 10 steps, check yes
Step Temp E_pair E_mol TotEng Press
16000            0 -0.00038582131            0 -0.00038582131 -2.4109178e-08
Loop time of 0.019393 on 1 procs for 1000 steps with 2 atoms

  next a
  jump SELF loop
  displace_atoms atom2 move 0 -0.02 0
  run   1000
  update every 1 steps, delay 10 steps, check yes
Step Temp E_pair E_mol TotEng Press
17000            0 -0.00040884425            0 -0.00040884425 -2.554754e-08
Loop time of 0.017792 on 1 procs for 1000 steps with 2 atoms

  next a
  jump SELF loop
  displace_atoms atom2 move 0 -0.02 0
  run   1000
  update every 1 steps, delay 10 steps, check yes
Step Temp E_pair E_mol TotEng Press
18000            0 -0.00043348578            0 -0.00043348578 -2.7086987e-08
Loop time of 0.015976 on 1 procs for 1000 steps with 2 atoms

  next a
  jump SELF loop
  displace_atoms atom2 move 0 -0.02 0
  run   1000
  update every 1 steps, delay 10 steps, check yes
Step Temp E_pair E_mol TotEng Press
19000            0 -0.00045987723            0 -0.00045987723 -2.8735715e-08
Loop time of 0.027301 on 1 procs for 1000 steps with 2 atoms

  next a
  jump SELF loop
  displace_atoms atom2 move 0 -0.02 0
  run   1000
  update every 1 steps, delay 10 steps, check yes
Step Temp E_pair E_mol TotEng Press
20000            0 -0.00048816204            0 -0.00048816204 -3.0502677e-08
Loop time of 0.021475 on 1 procs for 1000 steps with 2 atoms

  next a
  jump SELF loop
  displace_atoms atom2 move 0 -0.02 0
  run   1000
  update every 1 steps, delay 10 steps, check yes
Step Temp E_pair E_mol TotEng Press
21000            0 -0.000518497            0 -0.000518497 -3.2397657e-08
Loop time of 0.021135 on 1 procs for 1000 steps with 2 atoms

  next a
  jump SELF loop
  displace_atoms atom2 move 0 -0.02 0
  run   1000
  update every 1 steps, delay 10 steps, check yes
Step Temp E_pair E_mol TotEng Press
22000            0 -0.00055105365            0 -0.00055105365 -3.4431359e-08
Loop time of 0.024297 on 1 procs for 1000 steps with 2 atoms

  next a
  jump SELF loop
  displace_atoms atom2 move 0 -0.02 0
  run   1000
  update every 1 steps, delay 10 steps, check yes
Step Temp E_pair E_mol TotEng Press
23000            0 -0.00058601986            0 -0.00058601986 -3.6615503e-08
Loop time of 0.026774 on 1 procs for 1000 steps with 2 atoms

  next a
  jump SELF loop
  displace_atoms atom2 move 0 -0.02 0
  run   1000
  update every 1 steps, delay 10 steps, check yes
Step Temp E_pair E_mol TotEng Press
24000            0 -0.00062360153            0 -0.00062360153 -3.8962936e-08
Loop time of 0.019204 on 1 procs for 1000 steps with 2 atoms

  next a
  jump SELF loop
  displace_atoms atom2 move 0 -0.02 0
  run   1000
  update every 1 steps, delay 10 steps, check yes
Step Temp E_pair E_mol TotEng Press
25000            0 -0.00066402458            0 -0.00066402458 -4.1487748e-08
Loop time of 0.021812 on 1 procs for 1000 steps with 2 atoms

  next a
  jump SELF loop
  displace_atoms atom2 move 0 -0.02 0
  run   1000
  update every 1 steps, delay 10 steps, check yes
Step Temp E_pair E_mol TotEng Press
26000            0 -0.00070753708            0 -0.00070753708 -4.4205412e-08
Loop time of 0.021158 on 1 procs for 1000 steps with 2 atoms

  next a
  jump SELF loop
  displace_atoms atom2 move 0 -0.02 0
  run   1000
  update every 1 steps, delay 10 steps, check yes
Step Temp E_pair E_mol TotEng Press
27000            0 -0.00075441175            0 -0.00075441175 -4.7132936e-08
Loop time of 0.058706 on 1 procs for 1000 steps with 2 atoms

  next a
  jump SELF loop
  displace_atoms atom2 move 0 -0.02 0
  run   1000
  update every 1 steps, delay 10 steps, check yes
Step Temp E_pair E_mol TotEng Press
28000            0 -0.00080494867            0 -0.00080494867 -5.0289027e-08
Loop time of 0.034654 on 1 procs for 1000 steps with 2 atoms

  next a
  jump SELF loop
  displace_atoms atom2 move 0 -0.02 0
  run   1000
  update every 1 steps, delay 10 steps, check yes
Step Temp E_pair E_mol TotEng Press
29000            0 -0.00085947835            0 -0.00085947835 -5.3694292e-08
Loop time of 0.034158 on 1 procs for 1000 steps with 2 atoms

  next a
  jump SELF loop
  displace_atoms atom2 move 0 -0.02 0
  run   1000
  update every 1 steps, delay 10 steps, check yes
Step Temp E_pair E_mol TotEng Press
30000            0 -0.00091836523            0 -0.00091836523 -5.7371447e-08
Loop time of 0.01969 on 1 procs for 1000 steps with 2 atoms

  next a
  jump SELF loop
  displace_atoms atom2 move 0 -0.02 0
  run   1000
  update every 1 steps, delay 10 steps, check yes
Step Temp E_pair E_mol TotEng Press
31000            0 -0.00098201158            0 -0.00098201158 -6.1345558e-08
Loop time of 0.071212 on 1 procs for 1000 steps with 2 atoms

  next a
  jump SELF loop
  displace_atoms atom2 move 0 -0.02 0
  run   1000
  update every 1 steps, delay 10 steps, check yes
Step Temp E_pair E_mol TotEng Press
32000            0 -0.0010508619            0 -0.0010508619 -6.5644322e-08
Loop time of 0.044607 on 1 procs for 1000 steps with 2 atoms

  next a
  jump SELF loop
  displace_atoms atom2 move 0 -0.02 0
  run   1000
  update every 1 steps, delay 10 steps, check yes
Step Temp E_pair E_mol TotEng Press
33000            0 -0.0011254079            0 -0.0011254079 -7.0298368e-08
Loop time of 0.018293 on 1 procs for 1000 steps with 2 atoms

  next a
  jump SELF loop
  displace_atoms atom2 move 0 -0.02 0
  run   1000
  update every 1 steps, delay 10 steps, check yes
Step Temp E_pair E_mol TotEng Press
34000            0 -0.001206194            0 -0.001206194 -7.5341607e-08
Loop time of 0.058557 on 1 procs for 1000 steps with 2 atoms

  next a
  jump SELF loop
  displace_atoms atom2 move 0 -0.02 0
  run   1000
  update every 1 steps, delay 10 steps, check yes
Step Temp E_pair E_mol TotEng Press
35000            0 -0.0012938242            0 -0.0012938242 -8.0811633e-08
Loop time of 0.025906 on 1 procs for 1000 steps with 2 atoms

  next a
  jump SELF loop
  displace_atoms atom2 move 0 -0.02 0
  run   1000
  update every 1 steps, delay 10 steps, check yes
Step Temp E_pair E_mol TotEng Press
36000            0 -0.0013889685            0 -0.0013889685 -8.6750161e-08
Loop time of 0.124064 on 1 procs for 1000 steps with 2 atoms

  next a
  jump SELF loop
  displace_atoms atom2 move 0 -0.02 0
  run   1000
  update every 1 steps, delay 10 steps, check yes
Step Temp E_pair E_mol TotEng Press
37000            0 -0.0014923719            0 -0.0014923719 -9.3203541e-08
Loop time of 0.027333 on 1 procs for 1000 steps with 2 atoms

  next a
  jump SELF loop
  displace_atoms atom2 move 0 -0.02 0
  run   1000
  update every 1 steps, delay 10 steps, check yes
Step Temp E_pair E_mol TotEng Press
38000            0 -0.0016048632            0 -0.0016048632 -1.0022333e-07
Loop time of 0.069243 on 1 procs for 1000 steps with 2 atoms

  next a
  jump SELF loop
  displace_atoms atom2 move 0 -0.02 0
  run   1000
  update every 1 steps, delay 10 steps, check yes
Step Temp E_pair E_mol TotEng Press
39000            0 -0.001727366            0 -0.001727366 -1.0786697e-07
Loop time of 0.020277 on 1 procs for 1000 steps with 2 atoms

  next a
  jump SELF loop
  displace_atoms atom2 move 0 -0.02 0
  run   1000
  update every 1 steps, delay 10 steps, check yes
Loop time of 0.032043 on 1 procs for 1000 steps with 2 atoms

  next a
  jump SELF loop
  displace_atoms atom2 move 0 -0.02 0
  run   1000
  update every 1 steps, delay 10 steps, check yes
Loop time of 0.070104 on 1 procs for 1000 steps with 2 atoms

  next a
  jump SELF loop
  displace_atoms atom2 move 0 -0.02 0
  run   1000
  update every 1 steps, delay 10 steps, check yes
Loop time of 0.018787 on 1 procs for 1000 steps with 2 atoms

  next a
  jump SELF loop
  displace_atoms atom2 move 0 -0.02 0
  run   1000
  update every 1 steps, delay 10 steps, check yes
Loop time of 0.026903 on 1 procs for 1000 steps with 2 atoms

  next a
  jump SELF loop
  displace_atoms atom2 move 0 -0.02 0
  run   1000
  update every 1 steps, delay 10 steps, check yes
Loop time of 0.022594 on 1 procs for 1000 steps with 2 atoms

  next a
  jump SELF loop
  displace_atoms atom2 move 0 -0.02 0
  run   1000
  update every 1 steps, delay 10 steps, check yes
Loop time of 0.021594 on 1 procs for 1000 steps with 2 atoms

  next a
  jump SELF loop
  displace_atoms atom2 move 0 -0.02 0
  run   1000
  update every 1 steps, delay 10 steps, check yes
Loop time of 0.015124 on 1 procs for 1000 steps with 2 atoms

  next a
  jump SELF loop
  displace_atoms atom2 move 0 -0.02 0
  run   1000
  update every 1 steps, delay 10 steps, check yes
Loop time of 0.015608 on 1 procs for 1000 steps with 2 atoms

  next a
  jump SELF loop
  displace_atoms atom2 move 0 -0.02 0
  run   1000
  update every 1 steps, delay 10 steps, check yes
Loop time of 0.014785 on 1 procs for 1000 steps with 2 atoms

  next a
  jump SELF loop
  displace_atoms atom2 move 0 -0.02 0
  run   1000
  update every 1 steps, delay 10 steps, check yes
Loop time of 0.017146 on 1 procs for 1000 steps with 2 atoms

  next a
  jump SELF loop
  displace_atoms atom2 move 0 -0.02 0
  run   1000
  update every 1 steps, delay 10 steps, check yes
Loop time of 0.021492 on 1 procs for 1000 steps with 2 atoms

  next a
  jump SELF loop
  displace_atoms atom2 move 0 -0.02 0
  run   1000
  update every 1 steps, delay 10 steps, check yes
Loop time of 0.013174 on 1 procs for 1000 steps with 2 atoms

  next a
  jump SELF loop
  displace_atoms atom2 move 0 -0.02 0
  run   1000
  update every 1 steps, delay 10 steps, check yes
Loop time of 0.019914 on 1 procs for 1000 steps with 2 atoms

  next a
  jump SELF loop
  displace_atoms atom2 move 0 -0.02 0
  run   1000
  update every 1 steps, delay 10 steps, check yes
Loop time of 0.018667 on 1 procs for 1000 steps with 2 atoms

  next a
  jump SELF loop
  displace_atoms atom2 move 0 -0.02 0
  run   1000
  update every 1 steps, delay 10 steps, check yes
Loop time of 0.015163 on 1 procs for 1000 steps with 2 atoms

  next a
  jump SELF loop
  displace_atoms atom2 move 0 -0.02 0
  run   1000
  update every 1 steps, delay 10 steps, check yes
Loop time of 0.01405 on 1 procs for 1000 steps with 2 atoms

  next a
  jump SELF loop
  displace_atoms atom2 move 0 -0.02 0
  run   1000
  update every 1 steps, delay 10 steps, check yes
Loop time of 0.017393 on 1 procs for 1000 steps with 2 atoms

  next a
  jump SELF loop
  displace_atoms atom2 move 0 -0.02 0
  run   1000
  update every 1 steps, delay 10 steps, check yes
Loop time of 0.01362 on 1 procs for 1000 steps with 2 atoms

  next a
  jump SELF loop
  displace_atoms atom2 move 0 -0.02 0
  run   1000
  update every 1 steps, delay 10 steps, check yes
Loop time of 0.015488 on 1 procs for 1000 steps with 2 atoms

  next a
  jump SELF loop
  displace_atoms atom2 move 0 -0.02 0
  run   1000
  update every 1 steps, delay 10 steps, check yes
Loop time of 0.017174 on 1 procs for 1000 steps with 2 atoms

  next a
  jump SELF loop
  displace_atoms atom2 move 0 -0.02 0
  run   1000
  update every 1 steps, delay 10 steps, check yes
Loop time of 0.019124 on 1 procs for 1000 steps with 2 atoms

  next a
  jump SELF loop
  displace_atoms atom2 move 0 -0.02 0
  run   1000
  update every 1 steps, delay 10 steps, check yes
Loop time of 0.014248 on 1 procs for 1000 steps with 2 atoms

  next a
  jump SELF loop
  displace_atoms atom2 move 0 -0.02 0
  run   1000
  update every 1 steps, delay 10 steps, check yes
Loop time of 0.023966 on 1 procs for 1000 steps with 2 atoms

  next a
  jump SELF loop
  displace_atoms atom2 move 0 -0.02 0
  run   1000
  update every 1 steps, delay 10 steps, check yes
Loop time of 0.023619 on 1 procs for 1000 steps with 2 atoms

  next a
  jump SELF loop
  displace_atoms atom2 move 0 -0.02 0
  run   1000
  update every 1 steps, delay 10 steps, check yes
Loop time of 0.035377 on 1 procs for 1000 steps with 2 atoms

  next a
  jump SELF loop
  displace_atoms atom2 move 0 -0.02 0
  run   1000
  update every 1 steps, delay 10 steps, check yes
Loop time of 0.046478 on 1 procs for 1000 steps with 2 atoms

  next a
  jump SELF loop
  displace_atoms atom2 move 0 -0.02 0
  run   1000
  update every 1 steps, delay 10 steps, check yes
Loop time of 0.026755 on 1 procs for 1000 steps with 2 atoms

  next a
  jump SELF loop
  displace_atoms atom2 move 0 -0.02 0
  run   1000
  update every 1 steps, delay 10 steps, check yes
Loop time of 0.016834 on 1 procs for 1000 steps with 2 atoms

  next a
  jump SELF loop
  displace_atoms atom2 move 0 -0.02 0
  run   1000
  update every 1 steps, delay 10 steps, check yes
Loop time of 0.016326 on 1 procs for 1000 steps with 2 atoms

  next a
  jump SELF loop
  displace_atoms atom2 move 0 -0.02 0
  run   1000
  update every 1 steps, delay 10 steps, check yes
Loop time of 0.016741 on 1 procs for 1000 steps with 2 atoms

  next a
  jump SELF loop
  displace_atoms atom2 move 0 -0.02 0
  run   1000
  update every 1 steps, delay 10 steps, check yes
Loop time of 0.016988 on 1 procs for 1000 steps with 2 atoms

  next a
  jump SELF loop
  displace_atoms atom2 move 0 -0.02 0
  run   1000
  update every 1 steps, delay 10 steps, check yes
Loop time of 0.015088 on 1 procs for 1000 steps with 2 atoms

  next a
  jump SELF loop
  displace_atoms atom2 move 0 -0.02 0
  run   1000
  update every 1 steps, delay 10 steps, check yes
Loop time of 0.042767 on 1 procs for 1000 steps with 2 atoms

  next a
  jump SELF loop
  displace_atoms atom2 move 0 -0.02 0
  run   1000
  update every 1 steps, delay 10 steps, check yes
Loop time of 0.045856 on 1 procs for 1000 steps with 2 atoms

  next a
  jump SELF loop
  displace_atoms atom2 move 0 -0.02 0
  run   1000
  update every 1 steps, delay 10 steps, check yes
Loop time of 0.042544 on 1 procs for 1000 steps with 2 atoms

  next a
  jump SELF loop
  displace_atoms atom2 move 0 -0.02 0
  run   1000
  update every 1 steps, delay 10 steps, check yes
Loop time of 0.020548 on 1 procs for 1000 steps with 2 atoms

  next a
  jump SELF loop
  displace_atoms atom2 move 0 -0.02 0
  run   1000
  update every 1 steps, delay 10 steps, check yes
Loop time of 0.047563 on 1 procs for 1000 steps with 2 atoms

  next a
  jump SELF loop
  displace_atoms atom2 move 0 -0.02 0
  run   1000
  update every 1 steps, delay 10 steps, check yes
Loop time of 0.05391 on 1 procs for 1000 steps with 2 atoms

  next a
  jump SELF loop
  displace_atoms atom2 move 0 -0.02 0
  run   1000
  update every 1 steps, delay 10 steps, check yes
Loop time of 0.023208 on 1 procs for 1000 steps with 2 atoms

  next a
  jump SELF loop
  displace_atoms atom2 move 0 -0.02 0
  run   1000
  update every 1 steps, delay 10 steps, check yes
Loop time of 0.028745 on 1 procs for 1000 steps with 2 atoms

  next a
  jump SELF loop
  displace_atoms atom2 move 0 -0.02 0
  run   1000
  update every 1 steps, delay 10 steps, check yes
Loop time of 0.026823 on 1 procs for 1000 steps with 2 atoms

  next a
  jump SELF loop
  displace_atoms atom2 move 0 -0.02 0
  run   1000
  update every 1 steps, delay 10 steps, check yes
Loop time of 0.03332 on 1 procs for 1000 steps with 2 atoms

  next a
  jump SELF loop
  displace_atoms atom2 move 0 -0.02 0
  run   1000
  update every 1 steps, delay 10 steps, check yes
Loop time of 0.066525 on 1 procs for 1000 steps with 2 atoms

  next a
  jump SELF loop
  displace_atoms atom2 move 0 -0.02 0
  run   1000
  update every 1 steps, delay 10 steps, check yes
Loop time of 0.035966 on 1 procs for 1000 steps with 2 atoms

  next a
  jump SELF loop
  displace_atoms atom2 move 0 -0.02 0
  run   1000
  update every 1 steps, delay 10 steps, check yes
Loop time of 0.130188 on 1 procs for 1000 steps with 2 atoms

  next a
  jump SELF loop
  displace_atoms atom2 move 0 -0.02 0
  run   1000
  update every 1 steps, delay 10 steps, check yes
Loop time of 0.03594 on 1 procs for 1000 steps with 2 atoms

  next a
  jump SELF loop
  displace_atoms atom2 move 0 -0.02 0
  run   1000
  update every 1 steps, delay 10 steps, check yes
Loop time of 0.043996 on 1 procs for 1000 steps with 2 atoms

  next a
  jump SELF loop
  displace_atoms atom2 move 0 -0.02 0
  run   1000
  update every 1 steps, delay 10 steps, check yes
Loop time of 0.033589 on 1 procs for 1000 steps with 2 atoms

  next a
  jump SELF loop
  displace_atoms atom2 move 0 -0.02 0
  run   1000
  update every 1 steps, delay 10 steps, check yes
Loop time of 0.030298 on 1 procs for 1000 steps with 2 atoms

  next a
  jump SELF loop
  displace_atoms atom2 move 0 -0.02 0
  run   1000
  update every 1 steps, delay 10 steps, check yes
Loop time of 0.042335 on 1 procs for 1000 steps with 2 atoms

  next a
  jump SELF loop
  displace_atoms atom2 move 0 -0.02 0
  run   1000
  update every 1 steps, delay 10 steps, check yes
Loop time of 0.02577 on 1 procs for 1000 steps with 2 atoms

  next a
  jump SELF loop
  displace_atoms atom2 move 0 -0.02 0
  run   1000
  update every 1 steps, delay 10 steps, check yes
Loop time of 0.053617 on 1 procs for 1000 steps with 2 atoms

  next a
  jump SELF loop
  displace_atoms atom2 move 0 -0.02 0
  run   1000
  update every 1 steps, delay 10 steps, check yes
Loop time of 0.033143 on 1 procs for 1000 steps with 2 atoms

  next a
  jump SELF loop
  displace_atoms atom2 move 0 -0.02 0
  run   1000
  update every 1 steps, delay 10 steps, check yes
Loop time of 0.139012 on 1 procs for 1000 steps with 2 atoms

  next a
  jump SELF loop
  displace_atoms atom2 move 0 -0.02 0
  run   1000
  update every 1 steps, delay 10 steps, check yes
Loop time of 0.129168 on 1 procs for 1000 steps with 2 atoms

  next a
  jump SELF loop
  displace_atoms atom2 move 0 -0.02 0
  run   1000
  update every 1 steps, delay 10 steps, check yes
Loop time of 0.042976 on 1 procs for 1000 steps with 2 atoms

  next a
  jump SELF loop
  displace_atoms atom2 move 0 -0.02 0
  run   1000
  update every 1 steps, delay 10 steps, check yes
Loop time of 0.05421 on 1 procs for 1000 steps with 2 atoms

  next a
  jump SELF loop
  displace_atoms atom2 move 0 -0.02 0
  run   1000
  update every 1 steps, delay 10 steps, check yes
Loop time of 0.049172 on 1 procs for 1000 steps with 2 atoms

  next a
  jump SELF loop
  displace_atoms atom2 move 0 -0.02 0
  run   1000
  update every 1 steps, delay 10 steps, check yes
Loop time of 0.036472 on 1 procs for 1000 steps with 2 atoms

  next a
  jump SELF loop
  displace_atoms atom2 move 0 -0.02 0
  run   1000
  update every 1 steps, delay 10 steps, check yes
Loop time of 0.023344 on 1 procs for 1000 steps with 2 atoms

  next a
  jump SELF loop
  displace_atoms atom2 move 0 -0.02 0
  run   1000
  update every 1 steps, delay 10 steps, check yes
Loop time of 0.044637 on 1 procs for 1000 steps with 2 atoms

  next a
  jump SELF loop
  displace_atoms atom2 move 0 -0.02 0
  run   1000
  update every 1 steps, delay 10 steps, check yes
Loop time of 0.047391 on 1 procs for 1000 steps with 2 atoms

  next a
  jump SELF loop
  displace_atoms atom2 move 0 -0.02 0
  run   1000
  update every 1 steps, delay 10 steps, check yes
Loop time of 0.068221 on 1 procs for 1000 steps with 2 atoms

  next a
  jump SELF loop
  displace_atoms atom2 move 0 -0.02 0
  run   1000
  update every 1 steps, delay 10 steps, check yes
Loop time of 0.029184 on 1 procs for 1000 steps with 2 atoms

  next a
  jump SELF loop
  displace_atoms atom2 move 0 -0.02 0
  run   1000
  update every 1 steps, delay 10 steps, check yes
Loop time of 0.029988 on 1 procs for 1000 steps with 2 atoms

  next a
  jump SELF loop
  displace_atoms atom2 move 0 -0.02 0
  run   1000
  update every 1 steps, delay 10 steps, check yes
Loop time of 0.049532 on 1 procs for 1000 steps with 2 atoms

  next a
  jump SELF loop
  displace_atoms atom2 move 0 -0.02 0
  run   1000
  update every 1 steps, delay 10 steps, check yes
Loop time of 0.02993 on 1 procs for 1000 steps with 2 atoms

  next a
  jump SELF loop
  displace_atoms atom2 move 0 -0.02 0
  run   1000
  update every 1 steps, delay 10 steps, check yes
Loop time of 0.037256 on 1 procs for 1000 steps with 2 atoms

  next a
  jump SELF loop
  displace_atoms atom2 move 0 -0.02 0
  run   1000
  update every 1 steps, delay 10 steps, check yes
Loop time of 0.033165 on 1 procs for 1000 steps with 2 atoms

  next a
  jump SELF loop
  displace_atoms atom2 move 0 -0.02 0
  run   1000
  update every 1 steps, delay 10 steps, check yes
Loop time of 0.025391 on 1 procs for 1000 steps with 2 atoms

  next a
  jump SELF loop
  displace_atoms atom2 move 0 -0.02 0
  run   1000
  update every 1 steps, delay 10 steps, check yes
Loop time of 0.022847 on 1 procs for 1000 steps with 2 atoms

  next a
  jump SELF loop
  displace_atoms atom2 move 0 -0.02 0
  run   1000
  update every 1 steps, delay 10 steps, check yes
Loop time of 0.023684 on 1 procs for 1000 steps with 2 atoms

  next a
  jump SELF loop
  displace_atoms atom2 move 0 -0.02 0
  run   1000
  update every 1 steps, delay 10 steps, check yes
Loop time of 0.019138 on 1 procs for 1000 steps with 2 atoms

  next a
  jump SELF loop
  displace_atoms atom2 move 0 -0.02 0
  run   1000
  update every 1 steps, delay 10 steps, check yes
Loop time of 0.020666 on 1 procs for 1000 steps with 2 atoms

  next a
  jump SELF loop
  displace_atoms atom2 move 0 -0.02 0
  run   1000
  update every 1 steps, delay 10 steps, check yes
Loop time of 0.022079 on 1 procs for 1000 steps with 2 atoms

  next a
  jump SELF loop
  displace_atoms atom2 move 0 -0.02 0
  run   1000
  update every 1 steps, delay 10 steps, check yes
Loop time of 0.032735 on 1 procs for 1000 steps with 2 atoms

  next a
  jump SELF loop
  displace_atoms atom2 move 0 -0.02 0
  run   1000
  update every 1 steps, delay 10 steps, check yes
Loop time of 0.034691 on 1 procs for 1000 steps with 2 atoms

  next a
  jump SELF loop
  displace_atoms atom2 move 0 -0.02 0
  run   1000
  update every 1 steps, delay 10 steps, check yes
Loop time of 0.014562 on 1 procs for 1000 steps with 2 atoms

  next a
  jump SELF loop
  displace_atoms atom2 move 0 -0.02 0
  run   1000
  update every 1 steps, delay 10 steps, check yes
Loop time of 0.016653 on 1 procs for 1000 steps with 2 atoms

  next a
  jump SELF loop
  displace_atoms atom2 move 0 -0.02 0
  run   1000
  update every 1 steps, delay 10 steps, check yes
Loop time of 0.017659 on 1 procs for 1000 steps with 2 atoms

  next a
  jump SELF loop
  displace_atoms atom2 move 0 -0.02 0
  run   1000
  update every 1 steps, delay 10 steps, check yes
Loop time of 0.020358 on 1 procs for 1000 steps with 2 atoms

  next a
  jump SELF loop
  displace_atoms atom2 move 0 -0.02 0
  run   1000
  update every 1 steps, delay 10 steps, check yes
Loop time of 0.015284 on 1 procs for 1000 steps with 2 atoms

  next a
  jump SELF loop
  displace_atoms atom2 move 0 -0.02 0
  run   1000
  update every 1 steps, delay 10 steps, check yes
Loop time of 0.019412 on 1 procs for 1000 steps with 2 atoms

  next a
  jump SELF loop
  displace_atoms atom2 move 0 -0.02 0
  run   1000
  update every 1 steps, delay 10 steps, check yes
Loop time of 0.016656 on 1 procs for 1000 steps with 2 atoms

  next a
  jump SELF loop
  displace_atoms atom2 move 0 -0.02 0
  run   1000
  update every 1 steps, delay 10 steps, check yes
Loop time of 0.014922 on 1 procs for 1000 steps with 2 atoms

  next a
  jump SELF loop
  displace_atoms atom2 move 0 -0.02 0
  run   1000
  update every 1 steps, delay 10 steps, check yes
Loop time of 0.04249 on 1 procs for 1000 steps with 2 atoms

  next a
  jump SELF loop
  displace_atoms atom2 move 0 -0.02 0
  run   1000
  update every 1 steps, delay 10 steps, check yes
Loop time of 0.014882 on 1 procs for 1000 steps with 2 atoms

  next a
  jump SELF loop
  displace_atoms atom2 move 0 -0.02 0
  run   1000
  update every 1 steps, delay 10 steps, check yes
Loop time of 0.021323 on 1 procs for 1000 steps with 2 atoms

  next a
  jump SELF loop
  displace_atoms atom2 move 0 -0.02 0
  run   1000
  update every 1 steps, delay 10 steps, check yes
Loop time of 0.018704 on 1 procs for 1000 steps with 2 atoms

  next a
  jump SELF loop
  displace_atoms atom2 move 0 -0.02 0
  run   1000
  update every 1 steps, delay 10 steps, check yes
Loop time of 0.021361 on 1 procs for 1000 steps with 2 atoms

  next a
  jump SELF loop
  displace_atoms atom2 move 0 -0.02 0
  run   1000
  update every 1 steps, delay 10 steps, check yes
Loop time of 0.030153 on 1 procs for 1000 steps with 2 atoms

  next a
  jump SELF loop
  displace_atoms atom2 move 0 -0.02 0
  run   1000
  update every 1 steps, delay 10 steps, check yes
Loop time of 0.022536 on 1 procs for 1000 steps with 2 atoms

  next a
  jump SELF loop
  displace_atoms atom2 move 0 -0.02 0
  run   1000
  update every 1 steps, delay 10 steps, check yes
Loop time of 0.022405 on 1 procs for 1000 steps with 2 atoms

  next a
  jump SELF loop
  displace_atoms atom2 move 0 -0.02 0
  run   1000
  update every 1 steps, delay 10 steps, check yes
Loop time of 0.02568 on 1 procs for 1000 steps with 2 atoms

  next a
  jump SELF loop
  displace_atoms atom2 move 0 -0.02 0
  run   1000
  update every 1 steps, delay 10 steps, check yes
Loop time of 0.056956 on 1 procs for 1000 steps with 2 atoms

  next a
  jump SELF loop
  displace_atoms atom2 move 0 -0.02 0
  run   1000
  update every 1 steps, delay 10 steps, check yes
Loop time of 0.021157 on 1 procs for 1000 steps with 2 atoms

  next a
  jump SELF loop
  displace_atoms atom2 move 0 -0.02 0
  run   1000
  update every 1 steps, delay 10 steps, check yes
Loop time of 0.021098 on 1 procs for 1000 steps with 2 atoms

  next a
  jump SELF loop
  displace_atoms atom2 move 0 -0.02 0
  run   1000
  update every 1 steps, delay 10 steps, check yes
Loop time of 0.022477 on 1 procs for 1000 steps with 2 atoms

  next a
  jump SELF loop
  displace_atoms atom2 move 0 -0.02 0
  run   1000
  update every 1 steps, delay 10 steps, check yes
Loop time of 0.030366 on 1 procs for 1000 steps with 2 atoms

  next a
  jump SELF loop
  displace_atoms atom2 move 0 -0.02 0
  run   1000
  update every 1 steps, delay 10 steps, check yes
Loop time of 0.016299 on 1 procs for 1000 steps with 2 atoms

  next a
  jump SELF loop
  displace_atoms atom2 move 0 -0.02 0
  run   1000
  update every 1 steps, delay 10 steps, check yes
Loop time of 0.01708 on 1 procs for 1000 steps with 2 atoms

  next a
  jump SELF loop
  displace_atoms atom2 move 0 -0.02 0
  run   1000
  update every 1 steps, delay 10 steps, check yes
Loop time of 0.02431 on 1 procs for 1000 steps with 2 atoms

  next a
  jump SELF loop
  displace_atoms atom2 move 0 -0.02 0
  run   1000
  update every 1 steps, delay 10 steps, check yes
Loop time of 0.0278 on 1 procs for 1000 steps with 2 atoms

  next a
  jump SELF loop
  displace_atoms atom2 move 0 -0.02 0
  run   1000
  update every 1 steps, delay 10 steps, check yes
Loop time of 0.033037 on 1 procs for 1000 steps with 2 atoms

  next a
  jump SELF loop
  displace_atoms atom2 move 0 -0.02 0
  run   1000
  update every 1 steps, delay 10 steps, check yes
Loop time of 0.026608 on 1 procs for 1000 steps with 2 atoms

  next a
  jump SELF loop
  displace_atoms atom2 move 0 -0.02 0
  run   1000
  update every 1 steps, delay 10 steps, check yes
Loop time of 0.03082 on 1 procs for 1000 steps with 2 atoms

  next a
  jump SELF loop
  displace_atoms atom2 move 0 -0.02 0
  run   1000
  update every 1 steps, delay 10 steps, check yes
Loop time of 0.033633 on 1 procs for 1000 steps with 2 atoms

  next a
  jump SELF loop
  displace_atoms atom2 move 0 -0.02 0
  run   1000
  update every 1 steps, delay 10 steps, check yes
Loop time of 0.032885 on 1 procs for 1000 steps with 2 atoms

  next a
  jump SELF loop
  displace_atoms atom2 move 0 -0.02 0
  run   1000
  update every 1 steps, delay 10 steps, check yes
Loop time of 0.028972 on 1 procs for 1000 steps with 2 atoms

  next a
  jump SELF loop
  displace_atoms atom2 move 0 -0.02 0
  run   1000
  update every 1 steps, delay 10 steps, check yes
Loop time of 0.022297 on 1 procs for 1000 steps with 2 atoms

  next a
  jump SELF loop
  displace_atoms atom2 move 0 -0.02 0
  run   1000
  update every 1 steps, delay 10 steps, check yes
Loop time of 0.021113 on 1 procs for 1000 steps with 2 atoms

  next a
  jump SELF loop
  displace_atoms atom2 move 0 -0.02 0
  run   1000
  update every 1 steps, delay 10 steps, check yes
Loop time of 0.018576 on 1 procs for 1000 steps with 2 atoms

  next a
  jump SELF loop
  displace_atoms atom2 move 0 -0.02 0
  run   1000
  update every 1 steps, delay 10 steps, check yes
Loop time of 0.0315 on 1 procs for 1000 steps with 2 atoms

  next a
  jump SELF loop
  displace_atoms atom2 move 0 -0.02 0
  run   1000
  update every 1 steps, delay 10 steps, check yes
Loop time of 0.028604 on 1 procs for 1000 steps with 2 atoms

  next a
  jump SELF loop
  displace_atoms atom2 move 0 -0.02 0
  run   1000
  update every 1 steps, delay 10 steps, check yes
Loop time of 0.046477 on 1 procs for 1000 steps with 2 atoms

  next a
  jump SELF loop
  displace_atoms atom2 move 0 -0.02 0
  run   1000
  update every 1 steps, delay 10 steps, check yes
Loop time of 0.026591 on 1 procs for 1000 steps with 2 atoms

  next a
  jump SELF loop
  displace_atoms atom2 move 0 -0.02 0
  run   1000
  update every 1 steps, delay 10 steps, check yes
Loop time of 0.055829 on 1 procs for 1000 steps with 2 atoms

  next a
  jump SELF loop
  displace_atoms atom2 move 0 -0.02 0
  run   1000
  update every 1 steps, delay 10 steps, check yes
Loop time of 0.029144 on 1 procs for 1000 steps with 2 atoms

  next a
  jump SELF loop
  displace_atoms atom2 move 0 -0.02 0
  run   1000
  update every 1 steps, delay 10 steps, check yes
Loop time of 0.217039 on 1 procs for 1000 steps with 2 atoms

  next a
  jump SELF loop
  displace_atoms atom2 move 0 -0.02 0
  run   1000
  update every 1 steps, delay 10 steps, check yes
Loop time of 0.04543 on 1 procs for 1000 steps with 2 atoms

  next a
  jump SELF loop
  displace_atoms atom2 move 0 -0.02 0
  run   1000
  update every 1 steps, delay 10 steps, check yes
Loop time of 0.06109 on 1 procs for 1000 steps with 2 atoms

  next a
  jump SELF loop
  displace_atoms atom2 move 0 -0.02 0
  run   1000
  update every 1 steps, delay 10 steps, check yes
Loop time of 0.021685 on 1 procs for 1000 steps with 2 atoms

  next a
  jump SELF loop
  displace_atoms atom2 move 0 -0.02 0
  run   1000
  update every 1 steps, delay 10 steps, check yes
Loop time of 0.058131 on 1 procs for 1000 steps with 2 atoms

  next a
  jump SELF loop
  displace_atoms atom2 move 0 -0.02 0
  run   1000
  update every 1 steps, delay 10 steps, check yes
Loop time of 0.020806 on 1 procs for 1000 steps with 2 atoms

  next a
  jump SELF loop
  displace_atoms atom2 move 0 -0.02 0
  run   1000
  update every 1 steps, delay 10 steps, check yes
Loop time of 0.027929 on 1 procs for 1000 steps with 2 atoms

  next a
  jump SELF loop
  displace_atoms atom2 move 0 -0.02 0
  run   1000
  update every 1 steps, delay 10 steps, check yes
Loop time of 0.02081 on 1 procs for 1000 steps with 2 atoms

  next a
  jump SELF loop
  displace_atoms atom2 move 0 -0.02 0
  run   1000
  update every 1 steps, delay 10 steps, check yes
Loop time of 0.031713 on 1 procs for 1000 steps with 2 atoms

  next a
  jump SELF loop
  displace_atoms atom2 move 0 -0.02 0
  run   1000
  update every 1 steps, delay 10 steps, check yes
Loop time of 0.035442 on 1 procs for 1000 steps with 2 atoms

  next a
  jump SELF loop
  displace_atoms atom2 move 0 -0.02 0
  run   1000
  update every 1 steps, delay 10 steps, check yes
Loop time of 0.022608 on 1 procs for 1000 steps with 2 atoms

  next a
  jump SELF loop
  displace_atoms atom2 move 0 -0.02 0
  run   1000
  update every 1 steps, delay 10 steps, check yes
Loop time of 0.020766 on 1 procs for 1000 steps with 2 atoms

  next a
  jump SELF loop
  displace_atoms atom2 move 0 -0.02 0
  run   1000
  update every 1 steps, delay 10 steps, check yes
Loop time of 0.033699 on 1 procs for 1000 steps with 2 atoms

  next a
  jump SELF loop
  displace_atoms atom2 move 0 -0.02 0
  run   1000
  update every 1 steps, delay 10 steps, check yes
Loop time of 0.043003 on 1 procs for 1000 steps with 2 atoms

  next a
  jump SELF loop
  displace_atoms atom2 move 0 -0.02 0
  run   1000
  update every 1 steps, delay 10 steps, check yes
Loop time of 0.030597 on 1 procs for 1000 steps with 2 atoms

  next a
  jump SELF loop
  displace_atoms atom2 move 0 -0.02 0
  run   1000
  update every 1 steps, delay 10 steps, check yes
Loop time of 0.031749 on 1 procs for 1000 steps with 2 atoms

  next a
  jump SELF loop
  displace_atoms atom2 move 0 -0.02 0
  run   1000
  update every 1 steps, delay 10 steps, check yes
Loop time of 0.039343 on 1 procs for 1000 steps with 2 atoms

  next a
  jump SELF loop
  displace_atoms atom2 move 0 -0.02 0
  run   1000
  update every 1 steps, delay 10 steps, check yes
Loop time of 0.020673 on 1 procs for 1000 steps with 2 atoms

  next a
  jump SELF loop
  displace_atoms atom2 move 0 -0.02 0
  run   1000
  update every 1 steps, delay 10 steps, check yes
Loop time of 0.024796 on 1 procs for 1000 steps with 2 atoms

  next a
  jump SELF loop
  displace_atoms atom2 move 0 -0.02 0
  run   1000
  update every 1 steps, delay 10 steps, check yes
Loop time of 0.022194 on 1 procs for 1000 steps with 2 atoms

  next a
  jump SELF loop
  displace_atoms atom2 move 0 -0.02 0
  run   1000
  update every 1 steps, delay 10 steps, check yes
Loop time of 0.035381 on 1 procs for 1000 steps with 2 atoms

  next a
  jump SELF loop
  displace_atoms atom2 move 0 -0.02 0
  run   1000
  update every 1 steps, delay 10 steps, check yes
Loop time of 0.031581 on 1 procs for 1000 steps with 2 atoms

  next a
  jump SELF loop
  displace_atoms atom2 move 0 -0.02 0
  run   1000
  update every 1 steps, delay 10 steps, check yes
Loop time of 0.02345 on 1 procs for 1000 steps with 2 atoms

  next a
  jump SELF loop
  displace_atoms atom2 move 0 -0.02 0
  run   1000
  update every 1 steps, delay 10 steps, check yes
Loop time of 0.055058 on 1 procs for 1000 steps with 2 atoms

  next a
  jump SELF loop
  displace_atoms atom2 move 0 -0.02 0
  run   1000
  update every 1 steps, delay 10 steps, check yes
Loop time of 0.080228 on 1 procs for 1000 steps with 2 atoms

  next a
  jump SELF loop
  displace_atoms atom2 move 0 -0.02 0
  run   1000
  update every 1 steps, delay 10 steps, check yes
Loop time of 0.042846 on 1 procs for 1000 steps with 2 atoms

  next a
  jump SELF loop
  displace_atoms atom2 move 0 -0.02 0
  run   1000
  update every 1 steps, delay 10 steps, check yes
Loop time of 0.024923 on 1 procs for 1000 steps with 2 atoms

  next a
  jump SELF loop
  displace_atoms atom2 move 0 -0.02 0
  run   1000
  update every 1 steps, delay 10 steps, check yes
Loop time of 0.044569 on 1 procs for 1000 steps with 2 atoms

  next a
  jump SELF loop
  displace_atoms atom2 move 0 -0.02 0
  run   1000
  update every 1 steps, delay 10 steps, check yes
Loop time of 0.030926 on 1 procs for 1000 steps with 2 atoms

  next a
  jump SELF loop
  displace_atoms atom2 move 0 -0.02 0
  run   1000
  update every 1 steps, delay 10 steps, check yes
Loop time of 0.030783 on 1 procs for 1000 steps with 2 atoms

  next a
  jump SELF loop
  displace_atoms atom2 move 0 -0.02 0
  run   1000
  update every 1 steps, delay 10 steps, check yes
Loop time of 0.020486 on 1 procs for 1000 steps with 2 atoms

  next a
  jump SELF loop
  displace_atoms atom2 move 0 -0.02 0
  run   1000
  update every 1 steps, delay 10 steps, check yes
Loop time of 0.023992 on 1 procs for 1000 steps with 2 atoms

  next a
  jump SELF loop
  displace_atoms atom2 move 0 -0.02 0
  run   1000
  update every 1 steps, delay 10 steps, check yes
Loop time of 0.040775 on 1 procs for 1000 steps with 2 atoms

  next a
  jump SELF loop
  displace_atoms atom2 move 0 -0.02 0
  run   1000
  update every 1 steps, delay 10 steps, check yes
Loop time of 0.029215 on 1 procs for 1000 steps with 2 atoms

  next a
  jump SELF loop
  displace_atoms atom2 move 0 -0.02 0
  run   1000
  update every 1 steps, delay 10 steps, check yes
Loop time of 0.022239 on 1 procs for 1000 steps with 2 atoms

  next a
  jump SELF loop
  displace_atoms atom2 move 0 -0.02 0
  run   1000
  update every 1 steps, delay 10 steps, check yes
Loop time of 0.026691 on 1 procs for 1000 steps with 2 atoms

  next a
  jump SELF loop
  displace_atoms atom2 move 0 -0.02 0
  run   1000
  update every 1 steps, delay 10 steps, check yes
Loop time of 0.036343 on 1 procs for 1000 steps with 2 atoms

  next a
  jump SELF loop
  displace_atoms atom2 move 0 -0.02 0
  run   1000
  update every 1 steps, delay 10 steps, check yes
Loop time of 0.061716 on 1 procs for 1000 steps with 2 atoms

  next a
  jump SELF loop
  displace_atoms atom2 move 0 -0.02 0
  run   1000
  update every 1 steps, delay 10 steps, check yes
Loop time of 0.044002 on 1 procs for 1000 steps with 2 atoms

  next a
  jump SELF loop
  displace_atoms atom2 move 0 -0.02 0
  run   1000
  update every 1 steps, delay 10 steps, check yes
Loop time of 0.040164 on 1 procs for 1000 steps with 2 atoms

  next a
  jump SELF loop
  displace_atoms atom2 move 0 -0.02 0
  run   1000
  update every 1 steps, delay 10 steps, check yes
Loop time of 0.024521 on 1 procs for 1000 steps with 2 atoms

  next a
  jump SELF loop
  displace_atoms atom2 move 0 -0.02 0
  run   1000
  update every 1 steps, delay 10 steps, check yes
Loop time of 0.029554 on 1 procs for 1000 steps with 2 atoms

  next a
  jump SELF loop
  displace_atoms atom2 move 0 -0.02 0
  run   1000
  update every 1 steps, delay 10 steps, check yes
Loop time of 0.018478 on 1 procs for 1000 steps with 2 atoms

  next a
  jump SELF loop
  displace_atoms atom2 move 0 -0.02 0
  run   1000
  update every 1 steps, delay 10 steps, check yes
Loop time of 0.017708 on 1 procs for 1000 steps with 2 atoms

  next a
  jump SELF loop
  displace_atoms atom2 move 0 -0.02 0
  run   1000
  update every 1 steps, delay 10 steps, check yes
Loop time of 0.023521 on 1 procs for 1000 steps with 2 atoms

  next a
  jump SELF loop
  displace_atoms atom2 move 0 -0.02 0
  run   1000
  update every 1 steps, delay 10 steps, check yes
Loop time of 0.021524 on 1 procs for 1000 steps with 2 atoms

  next a
  jump SELF loop
  displace_atoms atom2 move 0 -0.02 0
  run   1000
  update every 1 steps, delay 10 steps, check yes
Loop time of 0.039555 on 1 procs for 1000 steps with 2 atoms

  next a
  jump SELF loop
  displace_atoms atom2 move 0 -0.02 0
  run   1000
  update every 1 steps, delay 10 steps, check yes
Loop time of 0.036879 on 1 procs for 1000 steps with 2 atoms

  next a
  jump SELF loop
  displace_atoms atom2 move 0 -0.02 0
  run   1000
  update every 1 steps, delay 10 steps, check yes
Loop time of 0.041119 on 1 procs for 1000 steps with 2 atoms

  next a
  jump SELF loop
  displace_atoms atom2 move 0 -0.02 0
  run   1000
  update every 1 steps, delay 10 steps, check yes
Loop time of 0.025063 on 1 procs for 1000 steps with 2 atoms

  next a
  jump SELF loop
  displace_atoms atom2 move 0 -0.02 0
  run   1000
  update every 1 steps, delay 10 steps, check yes
Loop time of 0.04078 on 1 procs for 1000 steps with 2 atoms

  next a
  jump SELF loop
  displace_atoms atom2 move 0 -0.02 0
  run   1000
  update every 1 steps, delay 10 steps, check yes
Loop time of 0.028676 on 1 procs for 1000 steps with 2 atoms

  next a
  jump SELF loop
  displace_atoms atom2 move 0 -0.02 0
  run   1000
  update every 1 steps, delay 10 steps, check yes
Loop time of 0.019337 on 1 procs for 1000 steps with 2 atoms

  next a
  jump SELF loop
  displace_atoms atom2 move 0 -0.02 0
  run   1000
  update every 1 steps, delay 10 steps, check yes
Loop time of 0.026732 on 1 procs for 1000 steps with 2 atoms

  next a
  jump SELF loop
  displace_atoms atom2 move 0 -0.02 0
  run   1000
  update every 1 steps, delay 10 steps, check yes
Loop time of 0.019159 on 1 procs for 1000 steps with 2 atoms

  next a
  jump SELF loop
  displace_atoms atom2 move 0 -0.02 0
  run   1000
  update every 1 steps, delay 10 steps, check yes
Loop time of 0.019954 on 1 procs for 1000 steps with 2 atoms

  next a
  jump SELF loop
  displace_atoms atom2 move 0 -0.02 0
  run   1000
  update every 1 steps, delay 10 steps, check yes
Loop time of 0.02142 on 1 procs for 1000 steps with 2 atoms

  next a
  jump SELF loop
  displace_atoms atom2 move 0 -0.02 0
  run   1000
  update every 1 steps, delay 10 steps, check yes
Loop time of 0.017788 on 1 procs for 1000 steps with 2 atoms

  next a
  jump SELF loop
  displace_atoms atom2 move 0 -0.02 0
  run   1000
  update every 1 steps, delay 10 steps, check yes
Loop time of 0.020276 on 1 procs for 1000 steps with 2 atoms

  next a
  jump SELF loop
  displace_atoms atom2 move 0 -0.02 0
  run   1000
  update every 1 steps, delay 10 steps, check yes
Loop time of 0.020395 on 1 procs for 1000 steps with 2 atoms

  next a
  jump SELF loop
  displace_atoms atom2 move 0 -0.02 0
  run   1000
  update every 1 steps, delay 10 steps, check yes
Loop time of 0.030479 on 1 procs for 1000 steps with 2 atoms

  next a
  jump SELF loop
  displace_atoms atom2 move 0 -0.02 0
  run   1000
  update every 1 steps, delay 10 steps, check yes
Loop time of 0.024125 on 1 procs for 1000 steps with 2 atoms

  next a
  jump SELF loop
  displace_atoms atom2 move 0 -0.02 0
  run   1000
  update every 1 steps, delay 10 steps, check yes
Loop time of 0.021276 on 1 procs for 1000 steps with 2 atoms

  next a
  jump SELF loop
  displace_atoms atom2 move 0 -0.02 0
  run   1000
  update every 1 steps, delay 10 steps, check yes
Loop time of 0.018435 on 1 procs for 1000 steps with 2 atoms

  next a
  jump SELF loop
  displace_atoms atom2 move 0 -0.02 0
  run   1000
  update every 1 steps, delay 10 steps, check yes
Loop time of 0.020687 on 1 procs for 1000 steps with 2 atoms

  next a
  jump SELF loop
  displace_atoms atom2 move 0 -0.02 0
  run   1000
  update every 1 steps, delay 10 steps, check yes
Loop time of 0.032868 on 1 procs for 1000 steps with 2 atoms

  next a
  jump SELF loop
  displace_atoms atom2 move 0 -0.02 0
  run   1000
  update every 1 steps, delay 10 steps, check yes
Loop time of 0.0244 on 1 procs for 1000 steps with 2 atoms

  next a
  jump SELF loop
  displace_atoms atom2 move 0 -0.02 0
  run   1000
  update every 1 steps, delay 10 steps, check yes
Loop time of 0.022661 on 1 procs for 1000 steps with 2 atoms

  next a
  jump SELF loop
  displace_atoms atom2 move 0 -0.02 0
  run   1000
  update every 1 steps, delay 10 steps, check yes
Loop time of 0.021578 on 1 procs for 1000 steps with 2 atoms

  next a
  jump SELF loop
  displace_atoms atom2 move 0 -0.02 0
  run   1000
  update every 1 steps, delay 10 steps, check yes
Loop time of 0.020629 on 1 procs for 1000 steps with 2 atoms

  next a
  jump SELF loop
  displace_atoms atom2 move 0 -0.02 0
  run   1000
  update every 1 steps, delay 10 steps, check yes
Loop time of 0.027829 on 1 procs for 1000 steps with 2 atoms

  next a
  jump SELF loop
  displace_atoms atom2 move 0 -0.02 0
  run   1000
  update every 1 steps, delay 10 steps, check yes
Loop time of 0.031888 on 1 procs for 1000 steps with 2 atoms

  next a
  jump SELF loop
  displace_atoms atom2 move 0 -0.02 0
  run   1000
  update every 1 steps, delay 10 steps, check yes
Loop time of 0.028582 on 1 procs for 1000 steps with 2 atoms

  next a
  jump SELF loop
  displace_atoms atom2 move 0 -0.02 0
  run   1000
  update every 1 steps, delay 10 steps, check yes
Loop time of 0.030009 on 1 procs for 1000 steps with 2 atoms

  next a
  jump SELF loop
  displace_atoms atom2 move 0 -0.02 0
  run   1000
  update every 1 steps, delay 10 steps, check yes
Loop time of 0.021731 on 1 procs for 1000 steps with 2 atoms

  next a
  jump SELF loop
  displace_atoms atom2 move 0 -0.02 0
  run   1000
  update every 1 steps, delay 10 steps, check yes
Loop time of 0.027425 on 1 procs for 1000 steps with 2 atoms

  next a
  jump SELF loop
  displace_atoms atom2 move 0 -0.02 0
  run   1000
  update every 1 steps, delay 10 steps, check yes
Loop time of 0.032005 on 1 procs for 1000 steps with 2 atoms

  next a
  jump SELF loop
  displace_atoms atom2 move 0 -0.02 0
  run   1000
  update every 1 steps, delay 10 steps, check yes
Loop time of 0.029489 on 1 procs for 1000 steps with 2 atoms

  next a
  jump SELF loop
  displace_atoms atom2 move 0 -0.02 0
  run   1000
  update every 1 steps, delay 10 steps, check yes
Loop time of 0.030287 on 1 procs for 1000 steps with 2 atoms

  next a
  jump SELF loop
  displace_atoms atom2 move 0 -0.02 0
  run   1000
  update every 1 steps, delay 10 steps, check yes
Loop time of 0.017566 on 1 procs for 1000 steps with 2 atoms

  next a
  jump SELF loop
  displace_atoms atom2 move 0 -0.02 0
  run   1000
  update every 1 steps, delay 10 steps, check yes
Loop time of 0.035687 on 1 procs for 1000 steps with 2 atoms

  next a
  jump SELF loop
  displace_atoms atom2 move 0 -0.02 0
  run   1000
  update every 1 steps, delay 10 steps, check yes
Loop time of 0.023833 on 1 procs for 1000 steps with 2 atoms

  next a
  jump SELF loop
  displace_atoms atom2 move 0 -0.02 0
  run   1000
  update every 1 steps, delay 10 steps, check yes
Loop time of 0.036968 on 1 procs for 1000 steps with 2 atoms

  next a
  jump SELF loop

# ----------------- Run Section -----------------

# The lines above define the system you want to simulate.
# What you do next is up to you.
# Typically a user would minimize and equilibrate
# the system using commands similar to the following:
#  ----   examples   ----
#
#  -- minimize --
# minimize 1.0e-5 1.0e-7 1000 10000
# (Note: Some fixes, for example "shake", interfere with the minimize command,
#        You can use the "unfix" command to disable them before minimization.)
#  -- declare time step for normal MD --
# timestep 1.0
#  -- run at constant pressure (Nose-Hoover)--
# fix   fxnpt all npt temp 300.0 300.0 100.0 iso 1.0 1.0 1000.0 drag 1.0
#  -- ALTERNATELY, run at constant volume (Nose-Hoover) --
# fix   fxnvt all nvt temp 300.0 300.0 500.0 tchain 1
#  -- ALTERNATELY, run at constant volume using Langevin dynamics. --
#  -- (This is good for sparse CG polymers in implicit solvent.)   --
# fix fxLAN all langevin 300.0 300.0 5000 48279
# fix fxNVE all nve  #(<--needed by fix langevin)
#  -- Now, finally run the simulation --
# run   50000
#  ---- (end of examples) ----
