LAMMPS (7 Aug 2019)

# ----------------- Init Section -----------------

include "system.in.init"
        units lj
        atom_style angle
        pair_style hybrid lj/expand/twopiece 2.5 lj/twopiece 2.5 soft/shift 0.3 zero 1 morse 2.5
        bond_style hybrid harmonic
        angle_style hybrid harmonic
        special_bonds lj 0.0 0.0 0.0

# ----------------- Atom Definition Section -----------------

read_data "system.data"
  orthogonal box = (-20 -20 -20) to (20 20 20)
  reading atoms ...
  2 atoms

# ----------------- Settings Section -----------------

include "system.in.settings"
       pair_coeff 2 2 lj/expand/twopiece 0.5 1 0.5 0.
        pair_coeff 3 3 lj/twopiece 5.0 1 0.5
        pair_coeff 4 4 lj/twopiece 1.0 1 0.5
        pair_coeff 3 4 lj/twopiece 1.0 1 0.5
        pair_coeff 2 3 lj/expand/twopiece 0.5 1 0.5 0.
        pair_coeff 2 4 lj/expand/twopiece 0.5 1 0.5 0.

        pair_coeff 5 5 soft/shift 1.5 0.2
pair_coeff 2 5 zero
pair_coeff 1 5 zero
pair_coeff 3 5 zero
pair_coeff 4 5 zero

        pair_coeff 8 8 lj/expand/twopiece 0.5 1 0.5 0.
pair_coeff 5 8 lj/expand/twopiece 0.5 1 0.5 0.
pair_coeff 2 8 zero
pair_coeff 1 8 morse 100 4 0.5
pair_coeff 3 8 zero
pair_coeff 4 8 zero
pair_coeff 6 8 zero
pair_coeff 7 8 zero

        pair_coeff 6 6 soft/shift 1.5 0.2
pair_coeff 2 6 zero
pair_coeff 1 6 zero
pair_coeff 3 6 zero
pair_coeff 4 6 zero
        pair_coeff 6 7 soft/shift 1.5 0.2

        pair_coeff 7 7 soft/shift 1.5 0.2
pair_coeff 2 7 zero
pair_coeff 1 7 zero
pair_coeff 3 7 zero
pair_coeff 4 7 zero

        pair_coeff 1 1 lj/expand/twopiece 0.5 1 0.8 0.
        pair_coeff 1 2 lj/expand/twopiece 0.5 1 0.8 0.
        pair_coeff 1 3 lj/expand/twopiece 0.5 1 0.8 0.
        pair_coeff 1 4 lj/expand/twopiece 0.5 1 0.8 0.

        bond_coeff 1 harmonic 1000 0.4
        bond_coeff 2 harmonic 1000 0.4
        bond_coeff 3 harmonic 1000 0.15

        angle_coeff 1 harmonic 20 180
        angle_coeff 2 harmonic 20 180
        angle_coeff 3 harmonic 20 180
        angle_coeff 4 harmonic 20 180

# ----------------- Run Section -----------------

include "system.in.run"
  dump dxyz all atom 1000 poly.lammpstrj
  group atom1 id 1
1 atoms in group atom1
  group atom2 id 2
1 atoms in group atom2
  compute pair_data all pair/local dist eng

  fix ffreeze all setforce 0 0 0
  dump 1 all local 10 pair_energy.data index c_pair_data[1] c_pair_data[2]

  thermo 200
  timestep 0.001
  run   1000
  update every 1 steps, delay 10 steps, check yes
Step Temp E_pair E_mol TotEng Press
0            0 -0.001821483            0 -0.001821483 -1.1382195e-07
Loop time of 0.028453 on 1 procs for 1000 steps with 2 atoms

  variable a loop 210
  label loop
  displace_atoms atom2 move 0 -0.02 0
  run   1000
  update every 1 steps, delay 10 steps, check yes
Step Temp E_pair E_mol TotEng Press
1000            0 -0.0019291065            0 -0.0019291065 -1.2054589e-07
Loop time of 0.018217 on 1 procs for 1000 steps with 2 atoms

  next a
  jump SELF loop
  displace_atoms atom2 move 0 -0.02 0
  run   1000
  update every 1 steps, delay 10 steps, check yes
Step Temp E_pair E_mol TotEng Press
2000            0 -0.0020442212            0 -0.0020442212 -1.277377e-07
Loop time of 0.017051 on 1 procs for 1000 steps with 2 atoms

  next a
  jump SELF loop
  displace_atoms atom2 move 0 -0.02 0
  run   1000
  update every 1 steps, delay 10 steps, check yes
Step Temp E_pair E_mol TotEng Press
3000            0 -0.0021674289            0 -0.0021674289 -1.3543493e-07
Loop time of 0.018554 on 1 procs for 1000 steps with 2 atoms

  next a
  jump SELF loop
  displace_atoms atom2 move 0 -0.02 0
  run   1000
  update every 1 steps, delay 10 steps, check yes
Step Temp E_pair E_mol TotEng Press
4000            0 -0.0022993862            0 -0.0022993862 -1.4367858e-07
Loop time of 0.038542 on 1 procs for 1000 steps with 2 atoms

  next a
  jump SELF loop
  displace_atoms atom2 move 0 -0.02 0
  run   1000
  update every 1 steps, delay 10 steps, check yes
Step Temp E_pair E_mol TotEng Press
5000            0 -0.0024408102            0 -0.0024408102 -1.5251338e-07
Loop time of 0.023865 on 1 procs for 1000 steps with 2 atoms

  next a
  jump SELF loop
  displace_atoms atom2 move 0 -0.02 0
  run   1000
  update every 1 steps, delay 10 steps, check yes
Step Temp E_pair E_mol TotEng Press
6000            0 -0.002592485            0 -0.002592485 -1.6198828e-07
Loop time of 0.029234 on 1 procs for 1000 steps with 2 atoms

  next a
  jump SELF loop
  displace_atoms atom2 move 0 -0.02 0
  run   1000
  update every 1 steps, delay 10 steps, check yes
Step Temp E_pair E_mol TotEng Press
7000            0 -0.0027552683            0 -0.0027552683 -1.7215679e-07
Loop time of 0.020648 on 1 procs for 1000 steps with 2 atoms

  next a
  jump SELF loop
  displace_atoms atom2 move 0 -0.02 0
  run   1000
  update every 1 steps, delay 10 steps, check yes
Step Temp E_pair E_mol TotEng Press
8000            0 -0.0029300993            0 -0.0029300993 -1.8307752e-07
Loop time of 0.01785 on 1 procs for 1000 steps with 2 atoms

  next a
  jump SELF loop
  displace_atoms atom2 move 0 -0.02 0
  run   1000
  update every 1 steps, delay 10 steps, check yes
Step Temp E_pair E_mol TotEng Press
9000            0 -0.0031180077            0 -0.0031180077 -1.9481468e-07
Loop time of 0.016052 on 1 procs for 1000 steps with 2 atoms

  next a
  jump SELF loop
  displace_atoms atom2 move 0 -0.02 0
  run   1000
  update every 1 steps, delay 10 steps, check yes
Step Temp E_pair E_mol TotEng Press
10000            0 -0.0033201229            0 -0.0033201229 -2.0743874e-07
Loop time of 0.017508 on 1 procs for 1000 steps with 2 atoms

  next a
  jump SELF loop
  displace_atoms atom2 move 0 -0.02 0
  run   1000
  update every 1 steps, delay 10 steps, check yes
Step Temp E_pair E_mol TotEng Press
11000            0 -0.0035376854            0 -0.0035376854 -2.2102706e-07
Loop time of 0.015741 on 1 procs for 1000 steps with 2 atoms

  next a
  jump SELF loop
  displace_atoms atom2 move 0 -0.02 0
  run   1000
  update every 1 steps, delay 10 steps, check yes
Step Temp E_pair E_mol TotEng Press
12000            0 -0.0037720588            0 -0.0037720588 -2.3566468e-07
Loop time of 0.01731 on 1 procs for 1000 steps with 2 atoms

  next a
  jump SELF loop
  displace_atoms atom2 move 0 -0.02 0
  run   1000
  update every 1 steps, delay 10 steps, check yes
Step Temp E_pair E_mol TotEng Press
13000            0 -0.0040247433            0 -0.0040247433 -2.5144514e-07
Loop time of 0.015973 on 1 procs for 1000 steps with 2 atoms

  next a
  jump SELF loop
  displace_atoms atom2 move 0 -0.02 0
  run   1000
  update every 1 steps, delay 10 steps, check yes
Step Temp E_pair E_mol TotEng Press
14000            0 -0.0042973917            0 -0.0042973917 -2.6847146e-07
Loop time of 0.015185 on 1 procs for 1000 steps with 2 atoms

  next a
  jump SELF loop
  displace_atoms atom2 move 0 -0.02 0
  run   1000
  update every 1 steps, delay 10 steps, check yes
Step Temp E_pair E_mol TotEng Press
15000            0 -0.0045918262            0 -0.0045918262 -2.8685723e-07
Loop time of 0.019975 on 1 procs for 1000 steps with 2 atoms

  next a
  jump SELF loop
  displace_atoms atom2 move 0 -0.02 0
  run   1000
  update every 1 steps, delay 10 steps, check yes
Step Temp E_pair E_mol TotEng Press
16000            0 -0.0049100579            0 -0.0049100579 -3.0672779e-07
Loop time of 0.014769 on 1 procs for 1000 steps with 2 atoms

  next a
  jump SELF loop
  displace_atoms atom2 move 0 -0.02 0
  run   1000
  update every 1 steps, delay 10 steps, check yes
Step Temp E_pair E_mol TotEng Press
17000            0 -0.0052543095            0 -0.0052543095 -3.2822161e-07
Loop time of 0.015038 on 1 procs for 1000 steps with 2 atoms

  next a
  jump SELF loop
  displace_atoms atom2 move 0 -0.02 0
  run   1000
  update every 1 steps, delay 10 steps, check yes
Step Temp E_pair E_mol TotEng Press
18000            0 -0.0056270393            0 -0.0056270393 -3.5149184e-07
Loop time of 0.019924 on 1 procs for 1000 steps with 2 atoms

  next a
  jump SELF loop
  displace_atoms atom2 move 0 -0.02 0
  run   1000
  update every 1 steps, delay 10 steps, check yes
Step Temp E_pair E_mol TotEng Press
19000            0 -0.0060309702            0 -0.0060309702 -3.7670804e-07
Loop time of 0.017915 on 1 procs for 1000 steps with 2 atoms

  next a
  jump SELF loop
  displace_atoms atom2 move 0 -0.02 0
  run   1000
  update every 1 steps, delay 10 steps, check yes
Step Temp E_pair E_mol TotEng Press
20000            0 -0.006469121            0 -0.006469121 -4.0405816e-07
Loop time of 0.017989 on 1 procs for 1000 steps with 2 atoms

  next a
  jump SELF loop
  displace_atoms atom2 move 0 -0.02 0
  run   1000
  update every 1 steps, delay 10 steps, check yes
Step Temp E_pair E_mol TotEng Press
21000            0 -0.0069448426            0 -0.0069448426 -4.337508e-07
Loop time of 0.025493 on 1 procs for 1000 steps with 2 atoms

  next a
  jump SELF loop
  displace_atoms atom2 move 0 -0.02 0
  run   1000
  update every 1 steps, delay 10 steps, check yes
Step Temp E_pair E_mol TotEng Press
22000            0 -0.0074618595            0 -0.0074618595 -4.6601771e-07
Loop time of 0.01933 on 1 procs for 1000 steps with 2 atoms

  next a
  jump SELF loop
  displace_atoms atom2 move 0 -0.02 0
  run   1000
  update every 1 steps, delay 10 steps, check yes
Step Temp E_pair E_mol TotEng Press
23000            0 -0.0080243161            0 -0.0080243161 -5.0111667e-07
Loop time of 0.04058 on 1 procs for 1000 steps with 2 atoms

  next a
  jump SELF loop
  displace_atoms atom2 move 0 -0.02 0
  run   1000
  update every 1 steps, delay 10 steps, check yes
Step Temp E_pair E_mol TotEng Press
24000            0 -0.0086368298            0 -0.0086368298 -5.3933484e-07
Loop time of 0.015757 on 1 procs for 1000 steps with 2 atoms

  next a
  jump SELF loop
  displace_atoms atom2 move 0 -0.02 0
  run   1000
  update every 1 steps, delay 10 steps, check yes
Step Temp E_pair E_mol TotEng Press
25000            0 -0.0093045521            0 -0.0093045521 -5.8099241e-07
Loop time of 0.019028 on 1 procs for 1000 steps with 2 atoms

  next a
  jump SELF loop
  displace_atoms atom2 move 0 -0.02 0
  run   1000
  update every 1 steps, delay 10 steps, check yes
Step Temp E_pair E_mol TotEng Press
26000            0 -0.010033238            0 -0.010033238 -6.2644694e-07
Loop time of 0.020374 on 1 procs for 1000 steps with 2 atoms

  next a
  jump SELF loop
  displace_atoms atom2 move 0 -0.02 0
  run   1000
  update every 1 steps, delay 10 steps, check yes
Step Temp E_pair E_mol TotEng Press
27000            0 -0.010829324            0 -0.010829324 -6.7609821e-07
Loop time of 0.021866 on 1 procs for 1000 steps with 2 atoms

  next a
  jump SELF loop
  displace_atoms atom2 move 0 -0.02 0
  run   1000
  update every 1 steps, delay 10 steps, check yes
Step Temp E_pair E_mol TotEng Press
28000            0 -0.011700022            0 -0.011700022 -7.3039381e-07
Loop time of 0.016699 on 1 procs for 1000 steps with 2 atoms

  next a
  jump SELF loop
  displace_atoms atom2 move 0 -0.02 0
  run   1000
  update every 1 steps, delay 10 steps, check yes
Step Temp E_pair E_mol TotEng Press
29000            0  -0.01265342            0  -0.01265342 -7.8983552e-07
Loop time of 0.016399 on 1 procs for 1000 steps with 2 atoms

  next a
  jump SELF loop
  displace_atoms atom2 move 0 -0.02 0
  run   1000
  update every 1 steps, delay 10 steps, check yes
Step Temp E_pair E_mol TotEng Press
30000            0 -0.013698604            0 -0.013698604 -8.5498672e-07
Loop time of 0.019503 on 1 procs for 1000 steps with 2 atoms

  next a
  jump SELF loop
  displace_atoms atom2 move 0 -0.02 0
  run   1000
  update every 1 steps, delay 10 steps, check yes
Step Temp E_pair E_mol TotEng Press
31000            0 -0.014845798            0 -0.014845798 -9.2648079e-07
Loop time of 0.019812 on 1 procs for 1000 steps with 2 atoms

  next a
  jump SELF loop
  displace_atoms atom2 move 0 -0.02 0
  run   1000
  update every 1 steps, delay 10 steps, check yes
Step Temp E_pair E_mol TotEng Press
32000            0 -0.016106519            0 -0.016106519 -1.0050308e-06
Loop time of 0.023138 on 1 procs for 1000 steps with 2 atoms

  next a
  jump SELF loop
  displace_atoms atom2 move 0 -0.02 0
  run   1000
  update every 1 steps, delay 10 steps, check yes
Step Temp E_pair E_mol TotEng Press
33000            0 -0.017493767            0 -0.017493767 -1.091441e-06
Loop time of 0.04673 on 1 procs for 1000 steps with 2 atoms

  next a
  jump SELF loop
  displace_atoms atom2 move 0 -0.02 0
  run   1000
  update every 1 steps, delay 10 steps, check yes
Step Temp E_pair E_mol TotEng Press
34000            0 -0.019022232            0 -0.019022232 -1.1866193e-06
Loop time of 0.01857 on 1 procs for 1000 steps with 2 atoms

  next a
  jump SELF loop
  displace_atoms atom2 move 0 -0.02 0
  run   1000
  update every 1 steps, delay 10 steps, check yes
Step Temp E_pair E_mol TotEng Press
35000            0 -0.020708548            0 -0.020708548 -1.2915928e-06
Loop time of 0.014922 on 1 procs for 1000 steps with 2 atoms

  next a
  jump SELF loop
  displace_atoms atom2 move 0 -0.02 0
  run   1000
  update every 1 steps, delay 10 steps, check yes
Step Temp E_pair E_mol TotEng Press
36000            0 -0.022571577            0 -0.022571577 -1.4075249e-06
Loop time of 0.018796 on 1 procs for 1000 steps with 2 atoms

  next a
  jump SELF loop
  displace_atoms atom2 move 0 -0.02 0
  run   1000
  update every 1 steps, delay 10 steps, check yes
Step Temp E_pair E_mol TotEng Press
37000            0 -0.024632745            0 -0.024632745 -1.5357355e-06
Loop time of 0.016403 on 1 procs for 1000 steps with 2 atoms

  next a
  jump SELF loop
  displace_atoms atom2 move 0 -0.02 0
  run   1000
  update every 1 steps, delay 10 steps, check yes
Step Temp E_pair E_mol TotEng Press
38000            0 -0.026916434            0 -0.026916434 -1.6777245e-06
Loop time of 0.021247 on 1 procs for 1000 steps with 2 atoms

  next a
  jump SELF loop
  displace_atoms atom2 move 0 -0.02 0
  run   1000
  update every 1 steps, delay 10 steps, check yes
Step Temp E_pair E_mol TotEng Press
39000            0 -0.029450436            0 -0.029450436 -1.8351993e-06
Loop time of 0.030046 on 1 procs for 1000 steps with 2 atoms

  next a
  jump SELF loop
  displace_atoms atom2 move 0 -0.02 0
  run   1000
  update every 1 steps, delay 10 steps, check yes
Loop time of 0.068347 on 1 procs for 1000 steps with 2 atoms

  next a
  jump SELF loop
  displace_atoms atom2 move 0 -0.02 0
  run   1000
  update every 1 steps, delay 10 steps, check yes
Loop time of 0.032405 on 1 procs for 1000 steps with 2 atoms

  next a
  jump SELF loop
  displace_atoms atom2 move 0 -0.02 0
  run   1000
  update every 1 steps, delay 10 steps, check yes
Loop time of 0.033549 on 1 procs for 1000 steps with 2 atoms

  next a
  jump SELF loop
  displace_atoms atom2 move 0 -0.02 0
  run   1000
  update every 1 steps, delay 10 steps, check yes
Loop time of 0.02204 on 1 procs for 1000 steps with 2 atoms

  next a
  jump SELF loop
  displace_atoms atom2 move 0 -0.02 0
  run   1000
  update every 1 steps, delay 10 steps, check yes
Loop time of 0.019253 on 1 procs for 1000 steps with 2 atoms

  next a
  jump SELF loop
  displace_atoms atom2 move 0 -0.02 0
  run   1000
  update every 1 steps, delay 10 steps, check yes
Loop time of 0.063179 on 1 procs for 1000 steps with 2 atoms

  next a
  jump SELF loop
  displace_atoms atom2 move 0 -0.02 0
  run   1000
  update every 1 steps, delay 10 steps, check yes
Loop time of 0.049448 on 1 procs for 1000 steps with 2 atoms

  next a
  jump SELF loop
  displace_atoms atom2 move 0 -0.02 0
  run   1000
  update every 1 steps, delay 10 steps, check yes
Loop time of 0.15216 on 1 procs for 1000 steps with 2 atoms

  next a
  jump SELF loop
  displace_atoms atom2 move 0 -0.02 0
  run   1000
  update every 1 steps, delay 10 steps, check yes
Loop time of 0.028057 on 1 procs for 1000 steps with 2 atoms

  next a
  jump SELF loop
  displace_atoms atom2 move 0 -0.02 0
  run   1000
  update every 1 steps, delay 10 steps, check yes
Loop time of 0.037777 on 1 procs for 1000 steps with 2 atoms

  next a
  jump SELF loop
  displace_atoms atom2 move 0 -0.02 0
  run   1000
  update every 1 steps, delay 10 steps, check yes
Loop time of 0.016294 on 1 procs for 1000 steps with 2 atoms

  next a
  jump SELF loop
  displace_atoms atom2 move 0 -0.02 0
  run   1000
  update every 1 steps, delay 10 steps, check yes
Loop time of 0.160117 on 1 procs for 1000 steps with 2 atoms

  next a
  jump SELF loop
  displace_atoms atom2 move 0 -0.02 0
  run   1000
  update every 1 steps, delay 10 steps, check yes
Loop time of 0.050812 on 1 procs for 1000 steps with 2 atoms

  next a
  jump SELF loop
  displace_atoms atom2 move 0 -0.02 0
  run   1000
  update every 1 steps, delay 10 steps, check yes
Loop time of 0.031513 on 1 procs for 1000 steps with 2 atoms

  next a
  jump SELF loop
  displace_atoms atom2 move 0 -0.02 0
  run   1000
  update every 1 steps, delay 10 steps, check yes
Loop time of 0.036412 on 1 procs for 1000 steps with 2 atoms

  next a
  jump SELF loop
  displace_atoms atom2 move 0 -0.02 0
  run   1000
  update every 1 steps, delay 10 steps, check yes
Loop time of 0.034055 on 1 procs for 1000 steps with 2 atoms

  next a
  jump SELF loop
  displace_atoms atom2 move 0 -0.02 0
  run   1000
  update every 1 steps, delay 10 steps, check yes
Loop time of 0.112745 on 1 procs for 1000 steps with 2 atoms

  next a
  jump SELF loop
  displace_atoms atom2 move 0 -0.02 0
  run   1000
  update every 1 steps, delay 10 steps, check yes
Loop time of 0.061471 on 1 procs for 1000 steps with 2 atoms

  next a
  jump SELF loop
  displace_atoms atom2 move 0 -0.02 0
  run   1000
  update every 1 steps, delay 10 steps, check yes
Loop time of 0.03062 on 1 procs for 1000 steps with 2 atoms

  next a
  jump SELF loop
  displace_atoms atom2 move 0 -0.02 0
  run   1000
  update every 1 steps, delay 10 steps, check yes
Loop time of 0.153656 on 1 procs for 1000 steps with 2 atoms

  next a
  jump SELF loop
  displace_atoms atom2 move 0 -0.02 0
  run   1000
  update every 1 steps, delay 10 steps, check yes
Loop time of 0.034181 on 1 procs for 1000 steps with 2 atoms

  next a
  jump SELF loop
  displace_atoms atom2 move 0 -0.02 0
  run   1000
  update every 1 steps, delay 10 steps, check yes
Loop time of 0.028299 on 1 procs for 1000 steps with 2 atoms

  next a
  jump SELF loop
  displace_atoms atom2 move 0 -0.02 0
  run   1000
  update every 1 steps, delay 10 steps, check yes
Loop time of 0.065703 on 1 procs for 1000 steps with 2 atoms

  next a
  jump SELF loop
  displace_atoms atom2 move 0 -0.02 0
  run   1000
  update every 1 steps, delay 10 steps, check yes
Loop time of 0.017471 on 1 procs for 1000 steps with 2 atoms

  next a
  jump SELF loop
  displace_atoms atom2 move 0 -0.02 0
  run   1000
  update every 1 steps, delay 10 steps, check yes
Loop time of 0.01813 on 1 procs for 1000 steps with 2 atoms

  next a
  jump SELF loop
  displace_atoms atom2 move 0 -0.02 0
  run   1000
  update every 1 steps, delay 10 steps, check yes
Loop time of 0.023761 on 1 procs for 1000 steps with 2 atoms

  next a
  jump SELF loop
  displace_atoms atom2 move 0 -0.02 0
  run   1000
  update every 1 steps, delay 10 steps, check yes
Loop time of 0.028912 on 1 procs for 1000 steps with 2 atoms

  next a
  jump SELF loop
  displace_atoms atom2 move 0 -0.02 0
  run   1000
  update every 1 steps, delay 10 steps, check yes
Loop time of 0.022009 on 1 procs for 1000 steps with 2 atoms

  next a
  jump SELF loop
  displace_atoms atom2 move 0 -0.02 0
  run   1000
  update every 1 steps, delay 10 steps, check yes
Loop time of 0.020602 on 1 procs for 1000 steps with 2 atoms

  next a
  jump SELF loop
  displace_atoms atom2 move 0 -0.02 0
  run   1000
  update every 1 steps, delay 10 steps, check yes
Loop time of 0.017895 on 1 procs for 1000 steps with 2 atoms

  next a
  jump SELF loop
  displace_atoms atom2 move 0 -0.02 0
  run   1000
  update every 1 steps, delay 10 steps, check yes
Loop time of 0.021065 on 1 procs for 1000 steps with 2 atoms

  next a
  jump SELF loop
  displace_atoms atom2 move 0 -0.02 0
  run   1000
  update every 1 steps, delay 10 steps, check yes
Loop time of 0.024228 on 1 procs for 1000 steps with 2 atoms

  next a
  jump SELF loop
  displace_atoms atom2 move 0 -0.02 0
  run   1000
  update every 1 steps, delay 10 steps, check yes
Loop time of 0.046632 on 1 procs for 1000 steps with 2 atoms

  next a
  jump SELF loop
  displace_atoms atom2 move 0 -0.02 0
  run   1000
  update every 1 steps, delay 10 steps, check yes
Loop time of 0.030044 on 1 procs for 1000 steps with 2 atoms

  next a
  jump SELF loop
  displace_atoms atom2 move 0 -0.02 0
  run   1000
  update every 1 steps, delay 10 steps, check yes
Loop time of 0.028688 on 1 procs for 1000 steps with 2 atoms

  next a
  jump SELF loop
  displace_atoms atom2 move 0 -0.02 0
  run   1000
  update every 1 steps, delay 10 steps, check yes
Loop time of 0.020758 on 1 procs for 1000 steps with 2 atoms

  next a
  jump SELF loop
  displace_atoms atom2 move 0 -0.02 0
  run   1000
  update every 1 steps, delay 10 steps, check yes
Loop time of 0.02258 on 1 procs for 1000 steps with 2 atoms

  next a
  jump SELF loop
  displace_atoms atom2 move 0 -0.02 0
  run   1000
  update every 1 steps, delay 10 steps, check yes
Loop time of 0.042395 on 1 procs for 1000 steps with 2 atoms

  next a
  jump SELF loop
  displace_atoms atom2 move 0 -0.02 0
  run   1000
  update every 1 steps, delay 10 steps, check yes
Loop time of 0.023513 on 1 procs for 1000 steps with 2 atoms

  next a
  jump SELF loop
  displace_atoms atom2 move 0 -0.02 0
  run   1000
  update every 1 steps, delay 10 steps, check yes
Loop time of 0.031447 on 1 procs for 1000 steps with 2 atoms

  next a
  jump SELF loop
  displace_atoms atom2 move 0 -0.02 0
  run   1000
  update every 1 steps, delay 10 steps, check yes
Loop time of 0.041582 on 1 procs for 1000 steps with 2 atoms

  next a
  jump SELF loop
  displace_atoms atom2 move 0 -0.02 0
  run   1000
  update every 1 steps, delay 10 steps, check yes
Loop time of 0.033204 on 1 procs for 1000 steps with 2 atoms

  next a
  jump SELF loop
  displace_atoms atom2 move 0 -0.02 0
  run   1000
  update every 1 steps, delay 10 steps, check yes
Loop time of 0.104758 on 1 procs for 1000 steps with 2 atoms

  next a
  jump SELF loop
  displace_atoms atom2 move 0 -0.02 0
  run   1000
  update every 1 steps, delay 10 steps, check yes
Loop time of 0.04782 on 1 procs for 1000 steps with 2 atoms

  next a
  jump SELF loop
  displace_atoms atom2 move 0 -0.02 0
  run   1000
  update every 1 steps, delay 10 steps, check yes
Loop time of 0.065686 on 1 procs for 1000 steps with 2 atoms

  next a
  jump SELF loop
  displace_atoms atom2 move 0 -0.02 0
  run   1000
  update every 1 steps, delay 10 steps, check yes
Loop time of 0.048988 on 1 procs for 1000 steps with 2 atoms

  next a
  jump SELF loop
  displace_atoms atom2 move 0 -0.02 0
  run   1000
  update every 1 steps, delay 10 steps, check yes
Loop time of 0.071227 on 1 procs for 1000 steps with 2 atoms

  next a
  jump SELF loop
  displace_atoms atom2 move 0 -0.02 0
  run   1000
  update every 1 steps, delay 10 steps, check yes
Loop time of 0.04677 on 1 procs for 1000 steps with 2 atoms

  next a
  jump SELF loop
  displace_atoms atom2 move 0 -0.02 0
  run   1000
  update every 1 steps, delay 10 steps, check yes
Loop time of 0.07086 on 1 procs for 1000 steps with 2 atoms

  next a
  jump SELF loop
  displace_atoms atom2 move 0 -0.02 0
  run   1000
  update every 1 steps, delay 10 steps, check yes
Loop time of 0.072378 on 1 procs for 1000 steps with 2 atoms

  next a
  jump SELF loop
  displace_atoms atom2 move 0 -0.02 0
  run   1000
  update every 1 steps, delay 10 steps, check yes
Loop time of 0.051088 on 1 procs for 1000 steps with 2 atoms

  next a
  jump SELF loop
  displace_atoms atom2 move 0 -0.02 0
  run   1000
  update every 1 steps, delay 10 steps, check yes
Loop time of 0.145086 on 1 procs for 1000 steps with 2 atoms

  next a
  jump SELF loop
  displace_atoms atom2 move 0 -0.02 0
  run   1000
  update every 1 steps, delay 10 steps, check yes
Loop time of 0.035238 on 1 procs for 1000 steps with 2 atoms

  next a
  jump SELF loop
  displace_atoms atom2 move 0 -0.02 0
  run   1000
  update every 1 steps, delay 10 steps, check yes
Loop time of 0.085831 on 1 procs for 1000 steps with 2 atoms

  next a
  jump SELF loop
  displace_atoms atom2 move 0 -0.02 0
  run   1000
  update every 1 steps, delay 10 steps, check yes
Loop time of 0.027385 on 1 procs for 1000 steps with 2 atoms

  next a
  jump SELF loop
  displace_atoms atom2 move 0 -0.02 0
  run   1000
  update every 1 steps, delay 10 steps, check yes
Loop time of 0.060653 on 1 procs for 1000 steps with 2 atoms

  next a
  jump SELF loop
  displace_atoms atom2 move 0 -0.02 0
  run   1000
  update every 1 steps, delay 10 steps, check yes
Loop time of 0.05057 on 1 procs for 1000 steps with 2 atoms

  next a
  jump SELF loop
  displace_atoms atom2 move 0 -0.02 0
  run   1000
  update every 1 steps, delay 10 steps, check yes
Loop time of 0.043444 on 1 procs for 1000 steps with 2 atoms

  next a
  jump SELF loop
  displace_atoms atom2 move 0 -0.02 0
  run   1000
  update every 1 steps, delay 10 steps, check yes
Loop time of 0.062825 on 1 procs for 1000 steps with 2 atoms

  next a
  jump SELF loop
  displace_atoms atom2 move 0 -0.02 0
  run   1000
  update every 1 steps, delay 10 steps, check yes
Loop time of 0.036351 on 1 procs for 1000 steps with 2 atoms

  next a
  jump SELF loop
  displace_atoms atom2 move 0 -0.02 0
  run   1000
  update every 1 steps, delay 10 steps, check yes
Loop time of 0.072449 on 1 procs for 1000 steps with 2 atoms

  next a
  jump SELF loop
  displace_atoms atom2 move 0 -0.02 0
  run   1000
  update every 1 steps, delay 10 steps, check yes
Loop time of 0.050726 on 1 procs for 1000 steps with 2 atoms

  next a
  jump SELF loop
  displace_atoms atom2 move 0 -0.02 0
  run   1000
  update every 1 steps, delay 10 steps, check yes
Loop time of 0.050282 on 1 procs for 1000 steps with 2 atoms

  next a
  jump SELF loop
  displace_atoms atom2 move 0 -0.02 0
  run   1000
  update every 1 steps, delay 10 steps, check yes
Loop time of 0.03628 on 1 procs for 1000 steps with 2 atoms

  next a
  jump SELF loop
  displace_atoms atom2 move 0 -0.02 0
  run   1000
  update every 1 steps, delay 10 steps, check yes
Loop time of 0.085137 on 1 procs for 1000 steps with 2 atoms

  next a
  jump SELF loop
  displace_atoms atom2 move 0 -0.02 0
  run   1000
  update every 1 steps, delay 10 steps, check yes
Loop time of 0.038621 on 1 procs for 1000 steps with 2 atoms

  next a
  jump SELF loop
  displace_atoms atom2 move 0 -0.02 0
  run   1000
  update every 1 steps, delay 10 steps, check yes
Loop time of 0.021812 on 1 procs for 1000 steps with 2 atoms

  next a
  jump SELF loop
  displace_atoms atom2 move 0 -0.02 0
  run   1000
  update every 1 steps, delay 10 steps, check yes
Loop time of 0.028089 on 1 procs for 1000 steps with 2 atoms

  next a
  jump SELF loop
  displace_atoms atom2 move 0 -0.02 0
  run   1000
  update every 1 steps, delay 10 steps, check yes
Loop time of 0.023306 on 1 procs for 1000 steps with 2 atoms

  next a
  jump SELF loop
  displace_atoms atom2 move 0 -0.02 0
  run   1000
  update every 1 steps, delay 10 steps, check yes
Loop time of 0.018652 on 1 procs for 1000 steps with 2 atoms

  next a
  jump SELF loop
  displace_atoms atom2 move 0 -0.02 0
  run   1000
  update every 1 steps, delay 10 steps, check yes
Loop time of 0.026531 on 1 procs for 1000 steps with 2 atoms

  next a
  jump SELF loop
  displace_atoms atom2 move 0 -0.02 0
  run   1000
  update every 1 steps, delay 10 steps, check yes
Loop time of 0.035232 on 1 procs for 1000 steps with 2 atoms

  next a
  jump SELF loop
  displace_atoms atom2 move 0 -0.02 0
  run   1000
  update every 1 steps, delay 10 steps, check yes
Loop time of 0.01654 on 1 procs for 1000 steps with 2 atoms

  next a
  jump SELF loop
  displace_atoms atom2 move 0 -0.02 0
  run   1000
  update every 1 steps, delay 10 steps, check yes
Loop time of 0.017875 on 1 procs for 1000 steps with 2 atoms

  next a
  jump SELF loop
  displace_atoms atom2 move 0 -0.02 0
  run   1000
  update every 1 steps, delay 10 steps, check yes
Loop time of 0.013593 on 1 procs for 1000 steps with 2 atoms

  next a
  jump SELF loop
  displace_atoms atom2 move 0 -0.02 0
  run   1000
  update every 1 steps, delay 10 steps, check yes
Loop time of 0.020278 on 1 procs for 1000 steps with 2 atoms

  next a
  jump SELF loop
  displace_atoms atom2 move 0 -0.02 0
  run   1000
  update every 1 steps, delay 10 steps, check yes
Loop time of 0.016962 on 1 procs for 1000 steps with 2 atoms

  next a
  jump SELF loop
  displace_atoms atom2 move 0 -0.02 0
  run   1000
  update every 1 steps, delay 10 steps, check yes
Loop time of 0.014607 on 1 procs for 1000 steps with 2 atoms

  next a
  jump SELF loop
  displace_atoms atom2 move 0 -0.02 0
  run   1000
  update every 1 steps, delay 10 steps, check yes
Loop time of 0.013655 on 1 procs for 1000 steps with 2 atoms

  next a
  jump SELF loop
  displace_atoms atom2 move 0 -0.02 0
  run   1000
  update every 1 steps, delay 10 steps, check yes
Loop time of 0.015318 on 1 procs for 1000 steps with 2 atoms

  next a
  jump SELF loop
  displace_atoms atom2 move 0 -0.02 0
  run   1000
  update every 1 steps, delay 10 steps, check yes
Loop time of 0.017147 on 1 procs for 1000 steps with 2 atoms

  next a
  jump SELF loop
  displace_atoms atom2 move 0 -0.02 0
  run   1000
  update every 1 steps, delay 10 steps, check yes
Loop time of 0.019879 on 1 procs for 1000 steps with 2 atoms

  next a
  jump SELF loop
  displace_atoms atom2 move 0 -0.02 0
  run   1000
  update every 1 steps, delay 10 steps, check yes
Loop time of 0.020457 on 1 procs for 1000 steps with 2 atoms

  next a
  jump SELF loop
  displace_atoms atom2 move 0 -0.02 0
  run   1000
  update every 1 steps, delay 10 steps, check yes
Loop time of 0.014017 on 1 procs for 1000 steps with 2 atoms

  next a
  jump SELF loop
  displace_atoms atom2 move 0 -0.02 0
  run   1000
  update every 1 steps, delay 10 steps, check yes
Loop time of 0.015565 on 1 procs for 1000 steps with 2 atoms

  next a
  jump SELF loop
  displace_atoms atom2 move 0 -0.02 0
  run   1000
  update every 1 steps, delay 10 steps, check yes
Loop time of 0.01855 on 1 procs for 1000 steps with 2 atoms

  next a
  jump SELF loop
  displace_atoms atom2 move 0 -0.02 0
  run   1000
  update every 1 steps, delay 10 steps, check yes
Loop time of 0.018364 on 1 procs for 1000 steps with 2 atoms

  next a
  jump SELF loop
  displace_atoms atom2 move 0 -0.02 0
  run   1000
  update every 1 steps, delay 10 steps, check yes
Loop time of 0.02438 on 1 procs for 1000 steps with 2 atoms

  next a
  jump SELF loop
  displace_atoms atom2 move 0 -0.02 0
  run   1000
  update every 1 steps, delay 10 steps, check yes
Loop time of 0.024881 on 1 procs for 1000 steps with 2 atoms

  next a
  jump SELF loop
  displace_atoms atom2 move 0 -0.02 0
  run   1000
  update every 1 steps, delay 10 steps, check yes
Loop time of 0.022307 on 1 procs for 1000 steps with 2 atoms

  next a
  jump SELF loop
  displace_atoms atom2 move 0 -0.02 0
  run   1000
  update every 1 steps, delay 10 steps, check yes
Loop time of 0.017084 on 1 procs for 1000 steps with 2 atoms

  next a
  jump SELF loop
  displace_atoms atom2 move 0 -0.02 0
  run   1000
  update every 1 steps, delay 10 steps, check yes
Loop time of 0.017931 on 1 procs for 1000 steps with 2 atoms

  next a
  jump SELF loop
  displace_atoms atom2 move 0 -0.02 0
  run   1000
  update every 1 steps, delay 10 steps, check yes
Loop time of 0.02106 on 1 procs for 1000 steps with 2 atoms

  next a
  jump SELF loop
  displace_atoms atom2 move 0 -0.02 0
  run   1000
  update every 1 steps, delay 10 steps, check yes
Loop time of 0.015275 on 1 procs for 1000 steps with 2 atoms

  next a
  jump SELF loop
  displace_atoms atom2 move 0 -0.02 0
  run   1000
  update every 1 steps, delay 10 steps, check yes
Loop time of 0.017061 on 1 procs for 1000 steps with 2 atoms

  next a
  jump SELF loop
  displace_atoms atom2 move 0 -0.02 0
  run   1000
  update every 1 steps, delay 10 steps, check yes
Loop time of 0.016672 on 1 procs for 1000 steps with 2 atoms

  next a
  jump SELF loop
  displace_atoms atom2 move 0 -0.02 0
  run   1000
  update every 1 steps, delay 10 steps, check yes
Loop time of 0.019558 on 1 procs for 1000 steps with 2 atoms

  next a
  jump SELF loop
  displace_atoms atom2 move 0 -0.02 0
  run   1000
  update every 1 steps, delay 10 steps, check yes
Loop time of 0.01942 on 1 procs for 1000 steps with 2 atoms

  next a
  jump SELF loop
  displace_atoms atom2 move 0 -0.02 0
  run   1000
  update every 1 steps, delay 10 steps, check yes
Loop time of 0.031818 on 1 procs for 1000 steps with 2 atoms

  next a
  jump SELF loop
  displace_atoms atom2 move 0 -0.02 0
  run   1000
  update every 1 steps, delay 10 steps, check yes
Loop time of 0.020613 on 1 procs for 1000 steps with 2 atoms

  next a
  jump SELF loop
  displace_atoms atom2 move 0 -0.02 0
  run   1000
  update every 1 steps, delay 10 steps, check yes
Loop time of 0.034722 on 1 procs for 1000 steps with 2 atoms

  next a
  jump SELF loop
  displace_atoms atom2 move 0 -0.02 0
  run   1000
  update every 1 steps, delay 10 steps, check yes
Loop time of 0.066904 on 1 procs for 1000 steps with 2 atoms

  next a
  jump SELF loop
  displace_atoms atom2 move 0 -0.02 0
  run   1000
  update every 1 steps, delay 10 steps, check yes
Loop time of 0.03177 on 1 procs for 1000 steps with 2 atoms

  next a
  jump SELF loop
  displace_atoms atom2 move 0 -0.02 0
  run   1000
  update every 1 steps, delay 10 steps, check yes
Loop time of 0.023619 on 1 procs for 1000 steps with 2 atoms

  next a
  jump SELF loop
  displace_atoms atom2 move 0 -0.02 0
  run   1000
  update every 1 steps, delay 10 steps, check yes
Loop time of 0.023341 on 1 procs for 1000 steps with 2 atoms

  next a
  jump SELF loop
  displace_atoms atom2 move 0 -0.02 0
  run   1000
  update every 1 steps, delay 10 steps, check yes
Loop time of 0.021117 on 1 procs for 1000 steps with 2 atoms

  next a
  jump SELF loop
  displace_atoms atom2 move 0 -0.02 0
  run   1000
  update every 1 steps, delay 10 steps, check yes
Loop time of 0.021271 on 1 procs for 1000 steps with 2 atoms

  next a
  jump SELF loop
  displace_atoms atom2 move 0 -0.02 0
  run   1000
  update every 1 steps, delay 10 steps, check yes
Loop time of 0.016949 on 1 procs for 1000 steps with 2 atoms

  next a
  jump SELF loop
  displace_atoms atom2 move 0 -0.02 0
  run   1000
  update every 1 steps, delay 10 steps, check yes
Loop time of 0.014707 on 1 procs for 1000 steps with 2 atoms

  next a
  jump SELF loop
  displace_atoms atom2 move 0 -0.02 0
  run   1000
  update every 1 steps, delay 10 steps, check yes
Loop time of 0.018233 on 1 procs for 1000 steps with 2 atoms

  next a
  jump SELF loop
  displace_atoms atom2 move 0 -0.02 0
  run   1000
  update every 1 steps, delay 10 steps, check yes
Loop time of 0.015861 on 1 procs for 1000 steps with 2 atoms

  next a
  jump SELF loop
  displace_atoms atom2 move 0 -0.02 0
  run   1000
  update every 1 steps, delay 10 steps, check yes
Loop time of 0.019189 on 1 procs for 1000 steps with 2 atoms

  next a
  jump SELF loop
  displace_atoms atom2 move 0 -0.02 0
  run   1000
  update every 1 steps, delay 10 steps, check yes
Loop time of 0.017629 on 1 procs for 1000 steps with 2 atoms

  next a
  jump SELF loop
  displace_atoms atom2 move 0 -0.02 0
  run   1000
  update every 1 steps, delay 10 steps, check yes
Loop time of 0.017441 on 1 procs for 1000 steps with 2 atoms

  next a
  jump SELF loop
  displace_atoms atom2 move 0 -0.02 0
  run   1000
  update every 1 steps, delay 10 steps, check yes
Loop time of 0.017237 on 1 procs for 1000 steps with 2 atoms

  next a
  jump SELF loop
  displace_atoms atom2 move 0 -0.02 0
  run   1000
  update every 1 steps, delay 10 steps, check yes
Loop time of 0.018356 on 1 procs for 1000 steps with 2 atoms

  next a
  jump SELF loop
  displace_atoms atom2 move 0 -0.02 0
  run   1000
  update every 1 steps, delay 10 steps, check yes
Loop time of 0.021381 on 1 procs for 1000 steps with 2 atoms

  next a
  jump SELF loop
  displace_atoms atom2 move 0 -0.02 0
  run   1000
  update every 1 steps, delay 10 steps, check yes
Loop time of 0.018854 on 1 procs for 1000 steps with 2 atoms

  next a
  jump SELF loop
  displace_atoms atom2 move 0 -0.02 0
  run   1000
  update every 1 steps, delay 10 steps, check yes
Loop time of 0.017681 on 1 procs for 1000 steps with 2 atoms

  next a
  jump SELF loop
  displace_atoms atom2 move 0 -0.02 0
  run   1000
  update every 1 steps, delay 10 steps, check yes
Loop time of 0.017913 on 1 procs for 1000 steps with 2 atoms

  next a
  jump SELF loop
  displace_atoms atom2 move 0 -0.02 0
  run   1000
  update every 1 steps, delay 10 steps, check yes
Loop time of 0.016866 on 1 procs for 1000 steps with 2 atoms

  next a
  jump SELF loop
  displace_atoms atom2 move 0 -0.02 0
  run   1000
  update every 1 steps, delay 10 steps, check yes
Loop time of 0.022545 on 1 procs for 1000 steps with 2 atoms

  next a
  jump SELF loop
  displace_atoms atom2 move 0 -0.02 0
  run   1000
  update every 1 steps, delay 10 steps, check yes
Loop time of 0.026846 on 1 procs for 1000 steps with 2 atoms

  next a
  jump SELF loop
  displace_atoms atom2 move 0 -0.02 0
  run   1000
  update every 1 steps, delay 10 steps, check yes
Loop time of 0.017024 on 1 procs for 1000 steps with 2 atoms

  next a
  jump SELF loop
  displace_atoms atom2 move 0 -0.02 0
  run   1000
  update every 1 steps, delay 10 steps, check yes
Loop time of 0.028996 on 1 procs for 1000 steps with 2 atoms

  next a
  jump SELF loop
  displace_atoms atom2 move 0 -0.02 0
  run   1000
  update every 1 steps, delay 10 steps, check yes
Loop time of 0.019836 on 1 procs for 1000 steps with 2 atoms

  next a
  jump SELF loop
  displace_atoms atom2 move 0 -0.02 0
  run   1000
  update every 1 steps, delay 10 steps, check yes
Loop time of 0.026208 on 1 procs for 1000 steps with 2 atoms

  next a
  jump SELF loop
  displace_atoms atom2 move 0 -0.02 0
  run   1000
  update every 1 steps, delay 10 steps, check yes
Loop time of 0.033623 on 1 procs for 1000 steps with 2 atoms

  next a
  jump SELF loop
  displace_atoms atom2 move 0 -0.02 0
  run   1000
  update every 1 steps, delay 10 steps, check yes
Loop time of 0.024827 on 1 procs for 1000 steps with 2 atoms

  next a
  jump SELF loop
  displace_atoms atom2 move 0 -0.02 0
  run   1000
  update every 1 steps, delay 10 steps, check yes
Loop time of 0.040076 on 1 procs for 1000 steps with 2 atoms

  next a
  jump SELF loop
  displace_atoms atom2 move 0 -0.02 0
  run   1000
  update every 1 steps, delay 10 steps, check yes
Loop time of 0.029033 on 1 procs for 1000 steps with 2 atoms

  next a
  jump SELF loop
  displace_atoms atom2 move 0 -0.02 0
  run   1000
  update every 1 steps, delay 10 steps, check yes
Loop time of 0.033806 on 1 procs for 1000 steps with 2 atoms

  next a
  jump SELF loop
  displace_atoms atom2 move 0 -0.02 0
  run   1000
  update every 1 steps, delay 10 steps, check yes
Loop time of 0.025991 on 1 procs for 1000 steps with 2 atoms

  next a
  jump SELF loop
  displace_atoms atom2 move 0 -0.02 0
  run   1000
  update every 1 steps, delay 10 steps, check yes
Loop time of 0.022851 on 1 procs for 1000 steps with 2 atoms

  next a
  jump SELF loop
  displace_atoms atom2 move 0 -0.02 0
  run   1000
  update every 1 steps, delay 10 steps, check yes
Loop time of 0.017682 on 1 procs for 1000 steps with 2 atoms

  next a
  jump SELF loop
  displace_atoms atom2 move 0 -0.02 0
  run   1000
  update every 1 steps, delay 10 steps, check yes
Loop time of 0.02428 on 1 procs for 1000 steps with 2 atoms

  next a
  jump SELF loop
  displace_atoms atom2 move 0 -0.02 0
  run   1000
  update every 1 steps, delay 10 steps, check yes
Loop time of 0.017346 on 1 procs for 1000 steps with 2 atoms

  next a
  jump SELF loop
  displace_atoms atom2 move 0 -0.02 0
  run   1000
  update every 1 steps, delay 10 steps, check yes
Loop time of 0.019275 on 1 procs for 1000 steps with 2 atoms

  next a
  jump SELF loop
  displace_atoms atom2 move 0 -0.02 0
  run   1000
  update every 1 steps, delay 10 steps, check yes
Loop time of 0.020286 on 1 procs for 1000 steps with 2 atoms

  next a
  jump SELF loop
  displace_atoms atom2 move 0 -0.02 0
  run   1000
  update every 1 steps, delay 10 steps, check yes
Loop time of 0.014117 on 1 procs for 1000 steps with 2 atoms

  next a
  jump SELF loop
  displace_atoms atom2 move 0 -0.02 0
  run   1000
  update every 1 steps, delay 10 steps, check yes
Loop time of 0.01691 on 1 procs for 1000 steps with 2 atoms

  next a
  jump SELF loop
  displace_atoms atom2 move 0 -0.02 0
  run   1000
  update every 1 steps, delay 10 steps, check yes
Loop time of 0.017678 on 1 procs for 1000 steps with 2 atoms

  next a
  jump SELF loop
  displace_atoms atom2 move 0 -0.02 0
  run   1000
  update every 1 steps, delay 10 steps, check yes
Loop time of 0.018185 on 1 procs for 1000 steps with 2 atoms

  next a
  jump SELF loop
  displace_atoms atom2 move 0 -0.02 0
  run   1000
  update every 1 steps, delay 10 steps, check yes
Loop time of 0.019047 on 1 procs for 1000 steps with 2 atoms

  next a
  jump SELF loop
  displace_atoms atom2 move 0 -0.02 0
  run   1000
  update every 1 steps, delay 10 steps, check yes
Loop time of 0.017562 on 1 procs for 1000 steps with 2 atoms

  next a
  jump SELF loop
  displace_atoms atom2 move 0 -0.02 0
  run   1000
  update every 1 steps, delay 10 steps, check yes
Loop time of 0.020286 on 1 procs for 1000 steps with 2 atoms

  next a
  jump SELF loop
  displace_atoms atom2 move 0 -0.02 0
  run   1000
  update every 1 steps, delay 10 steps, check yes
Loop time of 0.015209 on 1 procs for 1000 steps with 2 atoms

  next a
  jump SELF loop
  displace_atoms atom2 move 0 -0.02 0
  run   1000
  update every 1 steps, delay 10 steps, check yes
Loop time of 0.019022 on 1 procs for 1000 steps with 2 atoms

  next a
  jump SELF loop
  displace_atoms atom2 move 0 -0.02 0
  run   1000
  update every 1 steps, delay 10 steps, check yes
Loop time of 0.021975 on 1 procs for 1000 steps with 2 atoms

  next a
  jump SELF loop
  displace_atoms atom2 move 0 -0.02 0
  run   1000
  update every 1 steps, delay 10 steps, check yes
Loop time of 0.022353 on 1 procs for 1000 steps with 2 atoms

  next a
  jump SELF loop
  displace_atoms atom2 move 0 -0.02 0
  run   1000
  update every 1 steps, delay 10 steps, check yes
Loop time of 0.020341 on 1 procs for 1000 steps with 2 atoms

  next a
  jump SELF loop
  displace_atoms atom2 move 0 -0.02 0
  run   1000
  update every 1 steps, delay 10 steps, check yes
Loop time of 0.022383 on 1 procs for 1000 steps with 2 atoms

  next a
  jump SELF loop
  displace_atoms atom2 move 0 -0.02 0
  run   1000
  update every 1 steps, delay 10 steps, check yes
Loop time of 0.018762 on 1 procs for 1000 steps with 2 atoms

  next a
  jump SELF loop
  displace_atoms atom2 move 0 -0.02 0
  run   1000
  update every 1 steps, delay 10 steps, check yes
Loop time of 0.018921 on 1 procs for 1000 steps with 2 atoms

  next a
  jump SELF loop
  displace_atoms atom2 move 0 -0.02 0
  run   1000
  update every 1 steps, delay 10 steps, check yes
Loop time of 0.015982 on 1 procs for 1000 steps with 2 atoms

  next a
  jump SELF loop
  displace_atoms atom2 move 0 -0.02 0
  run   1000
  update every 1 steps, delay 10 steps, check yes
Loop time of 0.015366 on 1 procs for 1000 steps with 2 atoms

  next a
  jump SELF loop
  displace_atoms atom2 move 0 -0.02 0
  run   1000
  update every 1 steps, delay 10 steps, check yes
Loop time of 0.012721 on 1 procs for 1000 steps with 2 atoms

  next a
  jump SELF loop
  displace_atoms atom2 move 0 -0.02 0
  run   1000
  update every 1 steps, delay 10 steps, check yes
Loop time of 0.012619 on 1 procs for 1000 steps with 2 atoms

  next a
  jump SELF loop
  displace_atoms atom2 move 0 -0.02 0
  run   1000
  update every 1 steps, delay 10 steps, check yes
Loop time of 0.013721 on 1 procs for 1000 steps with 2 atoms

  next a
  jump SELF loop
  displace_atoms atom2 move 0 -0.02 0
  run   1000
  update every 1 steps, delay 10 steps, check yes
Loop time of 0.018139 on 1 procs for 1000 steps with 2 atoms

  next a
  jump SELF loop
  displace_atoms atom2 move 0 -0.02 0
  run   1000
  update every 1 steps, delay 10 steps, check yes
Loop time of 0.020572 on 1 procs for 1000 steps with 2 atoms

  next a
  jump SELF loop
  displace_atoms atom2 move 0 -0.02 0
  run   1000
  update every 1 steps, delay 10 steps, check yes
Loop time of 0.016689 on 1 procs for 1000 steps with 2 atoms

  next a
  jump SELF loop
  displace_atoms atom2 move 0 -0.02 0
  run   1000
  update every 1 steps, delay 10 steps, check yes
Loop time of 0.016397 on 1 procs for 1000 steps with 2 atoms

  next a
  jump SELF loop
  displace_atoms atom2 move 0 -0.02 0
  run   1000
  update every 1 steps, delay 10 steps, check yes
Loop time of 0.01748 on 1 procs for 1000 steps with 2 atoms

  next a
  jump SELF loop
  displace_atoms atom2 move 0 -0.02 0
  run   1000
  update every 1 steps, delay 10 steps, check yes
Loop time of 0.016172 on 1 procs for 1000 steps with 2 atoms

  next a
  jump SELF loop
  displace_atoms atom2 move 0 -0.02 0
  run   1000
  update every 1 steps, delay 10 steps, check yes
Loop time of 0.016122 on 1 procs for 1000 steps with 2 atoms

  next a
  jump SELF loop
  displace_atoms atom2 move 0 -0.02 0
  run   1000
  update every 1 steps, delay 10 steps, check yes
Loop time of 0.014434 on 1 procs for 1000 steps with 2 atoms

  next a
  jump SELF loop
  displace_atoms atom2 move 0 -0.02 0
  run   1000
  update every 1 steps, delay 10 steps, check yes
Loop time of 0.01362 on 1 procs for 1000 steps with 2 atoms

  next a
  jump SELF loop
  displace_atoms atom2 move 0 -0.02 0
  run   1000
  update every 1 steps, delay 10 steps, check yes
Loop time of 0.026641 on 1 procs for 1000 steps with 2 atoms

  next a
  jump SELF loop
  displace_atoms atom2 move 0 -0.02 0
  run   1000
  update every 1 steps, delay 10 steps, check yes
Loop time of 0.016447 on 1 procs for 1000 steps with 2 atoms

  next a
  jump SELF loop
  displace_atoms atom2 move 0 -0.02 0
  run   1000
  update every 1 steps, delay 10 steps, check yes
Loop time of 0.019044 on 1 procs for 1000 steps with 2 atoms

  next a
  jump SELF loop

# ----------------- Run Section -----------------

# The lines above define the system you want to simulate.
# What you do next is up to you.
# Typically a user would minimize and equilibrate
# the system using commands similar to the following:
#  ----   examples   ----
#
#  -- minimize --
# minimize 1.0e-5 1.0e-7 1000 10000
# (Note: Some fixes, for example "shake", interfere with the minimize command,
#        You can use the "unfix" command to disable them before minimization.)
#  -- declare time step for normal MD --
# timestep 1.0
#  -- run at constant pressure (Nose-Hoover)--
# fix   fxnpt all npt temp 300.0 300.0 100.0 iso 1.0 1.0 1000.0 drag 1.0
#  -- ALTERNATELY, run at constant volume (Nose-Hoover) --
# fix   fxnvt all nvt temp 300.0 300.0 500.0 tchain 1
#  -- ALTERNATELY, run at constant volume using Langevin dynamics. --
#  -- (This is good for sparse CG polymers in implicit solvent.)   --
# fix fxLAN all langevin 300.0 300.0 5000 48279
# fix fxNVE all nve  #(<--needed by fix langevin)
#  -- Now, finally run the simulation --
# run   50000
#  ---- (end of examples) ----
